version 2
run General-0-20220406-14:03:54-29165
attr configname General
attr datetime 20220406-14:03:54
attr experiment General
attr inifile omnetpp.ini
attr iterationvars ""
attr iterationvarsf ""
attr measurement ""
attr network MultiRadioShowcase
attr processid 29165
attr repetition 0
attr replication #0
attr resultdir results
attr runnumber 0
attr seedset 0
param *.accessPoint.numWlanInterfaces 2
param *.accessPoint.wlan[0].mgmt.ssid "\"wlan2.4\""
param *.accessPoint.wlan[1].mgmt.ssid "\"wlan5\""
param *.accessPoint.wlan[1].radio.bandName "\"5 GHz\""
param *.host1.wlan[*].agent.defaultSsid "\"wlan2.4\""
param *.host2.wlan[*].agent.defaultSsid "\"wlan5\""
param *.host2.wlan[0].radio.bandName "\"5 GHz\""
param *.host1.numApps 1
param *.host1.app[0].typename "\"PingApp\""
param *.host1.app[0].destAddr "\"host2\""
param *.host1.app[0].printPing true
param **.numMediumVisualizers 4
param **.displaySignals true
param *.visualizer.mediumVisualizer[0].nodeFilter "\"host1\""
param *.visualizer.mediumVisualizer[0].signalColor "\"red\""
param *.visualizer.mediumVisualizer[1].nodeFilter "\"host2\""
param *.visualizer.mediumVisualizer[1].signalColor "\"blue\""
param *.visualizer.mediumVisualizer[2].nodeFilter "\"accessPoint\""
param *.visualizer.mediumVisualizer[2].interfaceFilter "\"wlan[0]\""
param *.visualizer.mediumVisualizer[2].signalColor "\"red\""
param *.visualizer.mediumVisualizer[3].nodeFilter "\"accessPoint\""
param *.visualizer.mediumVisualizer[3].interfaceFilter "\"wlan[1]\""
param *.visualizer.mediumVisualizer[3].signalColor "\"blue\""
param *.visualizer.numDataLinkVisualizers 2
param *.visualizer.dataLinkVisualizer[*].displayLinks true
param *.visualizer.dataLinkVisualizer[*].activityLevel "\"peer\""
param *.visualizer.dataLinkVisualizer[0].nodeFilter "\"host1 or accessPoint\""
param *.visualizer.dataLinkVisualizer[0].lineColor "\"red\""
param *.visualizer.dataLinkVisualizer[0].labelColor "\"red\""
param *.visualizer.dataLinkVisualizer[1].nodeFilter "\"accessPoint or host2\""
param *.visualizer.dataLinkVisualizer[1].lineColor "\"darkblue\""
param *.visualizer.dataLinkVisualizer[1].labelColor "\"darkblue\""
param *.visualizer.interfaceTableVisualizer[0].displayInterfaceTables true
param *.visualizer.interfaceTableVisualizer[0].placementHint "\"top\""
param *.visualizer.ieee80211Visualizer[0].displayAssociations true
param **.arp.typename "\"GlobalArp\""

vector 0 MultiRadioShowcase.host1.wlan[0].radio radioMode:vector ETV
attr interpolationmode sample-hold
attr source radioModeChanged
attr title "Radio mode, vector"
vector 1 MultiRadioShowcase.host1.wlan[0].radio radioChannel:vector ETV
attr interpolationmode sample-hold
attr source radioChannelChanged
attr title "Radio channel, vector"
vector 2 MultiRadioShowcase.host1.wlan[1].radio radioMode:vector ETV
attr interpolationmode sample-hold
attr source radioModeChanged
attr title "Radio mode, vector"
vector 3 MultiRadioShowcase.host1.wlan[1].radio radioChannel:vector ETV
attr interpolationmode sample-hold
attr source radioChannelChanged
attr title "Radio channel, vector"
vector 4 MultiRadioShowcase.host2.wlan[0].radio radioMode:vector ETV
attr interpolationmode sample-hold
attr source radioModeChanged
attr title "Radio mode, vector"
vector 5 MultiRadioShowcase.host2.wlan[0].radio radioChannel:vector ETV
attr interpolationmode sample-hold
attr source radioChannelChanged
attr title "Radio channel, vector"
vector 6 MultiRadioShowcase.host2.wlan[1].radio radioMode:vector ETV
attr interpolationmode sample-hold
attr source radioModeChanged
attr title "Radio mode, vector"
vector 7 MultiRadioShowcase.host2.wlan[1].radio radioChannel:vector ETV
attr interpolationmode sample-hold
attr source radioChannelChanged
attr title "Radio channel, vector"
vector 8 MultiRadioShowcase.accessPoint.wlan[0].radio radioMode:vector ETV
attr interpolationmode sample-hold
attr source radioModeChanged
attr title "Radio mode, vector"
vector 9 MultiRadioShowcase.accessPoint.wlan[0].radio radioChannel:vector ETV
attr interpolationmode sample-hold
attr source radioChannelChanged
attr title "Radio channel, vector"
vector 10 MultiRadioShowcase.accessPoint.wlan[1].radio radioMode:vector ETV
attr interpolationmode sample-hold
attr source radioModeChanged
attr title "Radio mode, vector"
vector 11 MultiRadioShowcase.accessPoint.wlan[1].radio radioChannel:vector ETV
attr interpolationmode sample-hold
attr source radioChannelChanged
attr title "Radio channel, vector"
vector 12 MultiRadioShowcase.host1.wlan[0].radio receptionState:vector ETV
attr interpolationmode sample-hold
attr source receptionStateChanged
attr title "Radio reception state, vector"
vector 13 MultiRadioShowcase.host1.wlan[1].radio receptionState:vector ETV
attr interpolationmode sample-hold
attr source receptionStateChanged
attr title "Radio reception state, vector"
vector 14 MultiRadioShowcase.host2.wlan[0].radio receptionState:vector ETV
attr interpolationmode sample-hold
attr source receptionStateChanged
attr title "Radio reception state, vector"
vector 15 MultiRadioShowcase.host2.wlan[1].radio receptionState:vector ETV
attr interpolationmode sample-hold
attr source receptionStateChanged
attr title "Radio reception state, vector"
vector 16 MultiRadioShowcase.accessPoint.wlan[0].radio receptionState:vector ETV
attr interpolationmode sample-hold
attr source receptionStateChanged
attr title "Radio reception state, vector"
vector 17 MultiRadioShowcase.accessPoint.wlan[1].radio receptionState:vector ETV
attr interpolationmode sample-hold
attr source receptionStateChanged
attr title "Radio reception state, vector"
vector 18 MultiRadioShowcase.host1.wlan[0].mac.dcf.recoveryProcedure contentionWindowChanged:vector ETV
attr interpolationmode sample-hold
attr title "contention window, vector"
vector 19 MultiRadioShowcase.host1.wlan[1].mac.dcf.recoveryProcedure contentionWindowChanged:vector ETV
attr interpolationmode sample-hold
attr title "contention window, vector"
vector 20 MultiRadioShowcase.host2.wlan[0].mac.dcf.recoveryProcedure contentionWindowChanged:vector ETV
attr interpolationmode sample-hold
attr title "contention window, vector"
vector 21 MultiRadioShowcase.host2.wlan[1].mac.dcf.recoveryProcedure contentionWindowChanged:vector ETV
attr interpolationmode sample-hold
attr title "contention window, vector"
vector 22 MultiRadioShowcase.accessPoint.wlan[0].mac.dcf.recoveryProcedure contentionWindowChanged:vector ETV
attr interpolationmode sample-hold
attr title "contention window, vector"
vector 23 MultiRadioShowcase.accessPoint.wlan[1].mac.dcf.recoveryProcedure contentionWindowChanged:vector ETV
attr interpolationmode sample-hold
attr title "contention window, vector"
vector 24 MultiRadioShowcase.accessPoint.wlan[1].mac.dcf.channelAccess.pendingQueue packetPushed:vector(packetBytes) ETV
attr interpolationmode none
attr title "packet pushed, vector(packetBytes)"
vector 25 MultiRadioShowcase.accessPoint.wlan[1].mac.dcf.channelAccess.pendingQueue queueLength:vector ETV
attr interpolationmode sample-hold
attr source "count(packetPushed) - count(packetPopped) - count(packetRemoved) - count(packetDropped)"
attr title "queue length, vector"
vector 26 MultiRadioShowcase.accessPoint.wlan[1].mac.dcf.channelAccess.contention backoffPeriodGenerated:vector ETV
attr interpolationmode none
attr title "backoff periods, vector"
vector 27 MultiRadioShowcase.accessPoint.wlan[1].mac.dcf.channelAccess.contention backoffActive:vector ETV
attr interpolationmode sample-hold
attr source count(backoffStarted)-count(backoffStopped)
attr title "backoff active, vector"
vector 28 MultiRadioShowcase.accessPoint.wlan[1].mac.dcf.channelAccess.pendingQueue packetPopped:vector(packetBytes) ETV
attr interpolationmode none
attr title "packet popped, vector(packetBytes)"
vector 29 MultiRadioShowcase.accessPoint.wlan[1].mac.dcf.channelAccess.pendingQueue queueingTime:vector ETV
attr interpolationmode none
attr source queueingTime(packetPopped)
attr title "queueing times, vector"
attr unit s
vector 30 MultiRadioShowcase.accessPoint.wlan[1].mac.dcf.channelAccess.inProgressFrames queueLength:vector ETV
attr interpolationmode sample-hold
attr source "count(packetEnqueued) - count(packetDequeued)"
attr title "queue length, vector"
vector 31 MultiRadioShowcase.accessPoint.wlan[1].mac.dcf datarateSelected:vector ETV
attr interpolationmode none
attr title "datarates selected, vector"
vector 32 MultiRadioShowcase.accessPoint.wlan[1].mac packetSentToLower:vector(packetBytes) ETV
attr interpolationmode none
attr title "packets sent to lower layer, vector(packetBytes)"
vector 33 MultiRadioShowcase.accessPoint.wlan[1].mac.dcf frameSequenceActive:vector ETV
attr interpolationmode sample-hold
attr source count(frameSequenceStarted)-count(frameSequenceFinished)
attr title "frame sequence active, vector"
vector 34 MultiRadioShowcase.accessPoint.wlan[1].radio transmissionState:vector ETV
attr interpolationmode sample-hold
attr source transmissionStateChanged
attr title "Radio transmission state, vector"
vector 35 MultiRadioShowcase.accessPoint.wlan[1].mac.dcf packetSentToPeer:vector(packetBytes) ETV
attr interpolationmode none
attr title "packets sent, vector(packetBytes)"
vector 36 MultiRadioShowcase.accessPoint.wlan[1].mac.dcf packetSentToPeerMulticast:vector(packetBytes) ETV
attr interpolationmode none
attr source ieee80211Multicast(packetSentToPeer)
attr title "packets sent: multicast, vector(packetBytes)"
vector 37 MultiRadioShowcase.accessPoint.wlan[1].mac.dcf packetSentToPeerBroadcast:vector(packetBytes) ETV
attr interpolationmode none
attr source ieee80211Broadcast(packetSentToPeer)
attr title "packets sent: broadcast , vector(packetBytes)"
vector 38 MultiRadioShowcase.accessPoint.wlan[1].mac.dcf packetSentToPeerWithoutRetry:vector(packetBytes) ETV
attr interpolationmode none
attr source ieee80211NotRetry(packetSentToPeer)
attr title "packets sent: without retry, vector(packetBytes)"
vector 39 MultiRadioShowcase.accessPoint.wlan[1].mac.dcf.channelAccess.inProgressFrames queueingTime:vector ETV
attr interpolationmode none
attr source queueingTime(packetDequeued)
attr title "queueing times, vector"
vector 40 MultiRadioShowcase.host2.wlan[0].mac packetReceivedFromLower:vector(packetBytes) ETV
attr interpolationmode none
attr title "packets received from lower layer, vector(packetBytes)"
vector 41 MultiRadioShowcase.host2.wlan[0].mac.dcf packetReceivedFromPeer:vector(packetBytes) ETV
attr interpolationmode none
attr title "packets received, vector(packetBytes)"
vector 42 MultiRadioShowcase.host2.wlan[0].mac.dcf packetReceivedFromPeerMulticast:vector(packetBytes) ETV
attr interpolationmode none
attr source ieee80211Multicast(packetReceivedFromPeer)
attr title "packets received: multicast, vector(packetBytes)"
vector 43 MultiRadioShowcase.host2.wlan[0].mac.dcf packetReceivedFromPeerBroadcast:vector(packetBytes) ETV
attr interpolationmode none
attr source ieee80211Broadcast(packetReceivedFromPeer)
attr title "packets received: broadcast, vector(packetBytes)"
vector 44 MultiRadioShowcase.host2.wlan[0].mac.dcf packetReceivedFromPeerWithoutRetry:vector(packetBytes) ETV
attr interpolationmode none
attr source ieee80211NotRetry(packetReceivedFromPeer)
attr title "packets received: without retry, vector(packetBytes)"
vector 45 MultiRadioShowcase.accessPoint.wlan[0].mac.dcf.channelAccess.pendingQueue packetPushed:vector(packetBytes) ETV
attr interpolationmode none
attr title "packet pushed, vector(packetBytes)"
vector 46 MultiRadioShowcase.accessPoint.wlan[0].mac.dcf.channelAccess.pendingQueue queueLength:vector ETV
attr interpolationmode sample-hold
attr source "count(packetPushed) - count(packetPopped) - count(packetRemoved) - count(packetDropped)"
attr title "queue length, vector"
vector 47 MultiRadioShowcase.accessPoint.wlan[0].mac.dcf.channelAccess.contention backoffPeriodGenerated:vector ETV
attr interpolationmode none
attr title "backoff periods, vector"
vector 48 MultiRadioShowcase.accessPoint.wlan[0].mac.dcf.channelAccess.contention backoffActive:vector ETV
attr interpolationmode sample-hold
attr source count(backoffStarted)-count(backoffStopped)
attr title "backoff active, vector"
vector 49 MultiRadioShowcase.accessPoint.wlan[0].mac.dcf.channelAccess.pendingQueue packetPopped:vector(packetBytes) ETV
attr interpolationmode none
attr title "packet popped, vector(packetBytes)"
vector 50 MultiRadioShowcase.accessPoint.wlan[0].mac.dcf.channelAccess.pendingQueue queueingTime:vector ETV
attr interpolationmode none
attr source queueingTime(packetPopped)
attr title "queueing times, vector"
attr unit s
vector 51 MultiRadioShowcase.accessPoint.wlan[0].mac.dcf.channelAccess.inProgressFrames queueLength:vector ETV
attr interpolationmode sample-hold
attr source "count(packetEnqueued) - count(packetDequeued)"
attr title "queue length, vector"
vector 52 MultiRadioShowcase.accessPoint.wlan[0].mac.dcf datarateSelected:vector ETV
attr interpolationmode none
attr title "datarates selected, vector"
vector 53 MultiRadioShowcase.accessPoint.wlan[0].mac packetSentToLower:vector(packetBytes) ETV
attr interpolationmode none
attr title "packets sent to lower layer, vector(packetBytes)"
vector 54 MultiRadioShowcase.accessPoint.wlan[0].mac.dcf frameSequenceActive:vector ETV
attr interpolationmode sample-hold
attr source count(frameSequenceStarted)-count(frameSequenceFinished)
attr title "frame sequence active, vector"
vector 55 MultiRadioShowcase.accessPoint.wlan[0].radio transmissionState:vector ETV
attr interpolationmode sample-hold
attr source transmissionStateChanged
attr title "Radio transmission state, vector"
vector 56 MultiRadioShowcase.accessPoint.wlan[0].mac.dcf packetSentToPeer:vector(packetBytes) ETV
attr interpolationmode none
attr title "packets sent, vector(packetBytes)"
vector 57 MultiRadioShowcase.accessPoint.wlan[0].mac.dcf packetSentToPeerMulticast:vector(packetBytes) ETV
attr interpolationmode none
attr source ieee80211Multicast(packetSentToPeer)
attr title "packets sent: multicast, vector(packetBytes)"
vector 58 MultiRadioShowcase.accessPoint.wlan[0].mac.dcf packetSentToPeerBroadcast:vector(packetBytes) ETV
attr interpolationmode none
attr source ieee80211Broadcast(packetSentToPeer)
attr title "packets sent: broadcast , vector(packetBytes)"
vector 59 MultiRadioShowcase.accessPoint.wlan[0].mac.dcf packetSentToPeerWithoutRetry:vector(packetBytes) ETV
attr interpolationmode none
attr source ieee80211NotRetry(packetSentToPeer)
attr title "packets sent: without retry, vector(packetBytes)"
vector 60 MultiRadioShowcase.accessPoint.wlan[0].mac.dcf.channelAccess.inProgressFrames queueingTime:vector ETV
attr interpolationmode none
attr source queueingTime(packetDequeued)
attr title "queueing times, vector"
vector 61 MultiRadioShowcase.host2.wlan[1].mac packetReceivedFromLower:vector(packetBytes) ETV
attr interpolationmode none
attr title "packets received from lower layer, vector(packetBytes)"
vector 62 MultiRadioShowcase.host2.wlan[1].mac.dcf packetReceivedFromPeer:vector(packetBytes) ETV
attr interpolationmode none
attr title "packets received, vector(packetBytes)"
vector 63 MultiRadioShowcase.host2.wlan[1].mac.dcf packetReceivedFromPeerMulticast:vector(packetBytes) ETV
attr interpolationmode none
attr source ieee80211Multicast(packetReceivedFromPeer)
attr title "packets received: multicast, vector(packetBytes)"
vector 64 MultiRadioShowcase.host2.wlan[1].mac.dcf packetReceivedFromPeerBroadcast:vector(packetBytes) ETV
attr interpolationmode none
attr source ieee80211Broadcast(packetReceivedFromPeer)
attr title "packets received: broadcast, vector(packetBytes)"
vector 65 MultiRadioShowcase.host2.wlan[1].mac.dcf packetReceivedFromPeerWithoutRetry:vector(packetBytes) ETV
attr interpolationmode none
attr source ieee80211NotRetry(packetReceivedFromPeer)
attr title "packets received: without retry, vector(packetBytes)"
vector 66 MultiRadioShowcase.host1.wlan[0].mac packetReceivedFromLower:vector(packetBytes) ETV
attr interpolationmode none
attr title "packets received from lower layer, vector(packetBytes)"
vector 67 MultiRadioShowcase.host1.wlan[0].mac.dcf packetReceivedFromPeer:vector(packetBytes) ETV
attr interpolationmode none
attr title "packets received, vector(packetBytes)"
vector 68 MultiRadioShowcase.host1.wlan[0].mac.dcf packetReceivedFromPeerMulticast:vector(packetBytes) ETV
attr interpolationmode none
attr source ieee80211Multicast(packetReceivedFromPeer)
attr title "packets received: multicast, vector(packetBytes)"
vector 69 MultiRadioShowcase.host1.wlan[0].mac.dcf packetReceivedFromPeerBroadcast:vector(packetBytes) ETV
attr interpolationmode none
attr source ieee80211Broadcast(packetReceivedFromPeer)
attr title "packets received: broadcast, vector(packetBytes)"
vector 70 MultiRadioShowcase.host1.wlan[0].mac.dcf packetReceivedFromPeerWithoutRetry:vector(packetBytes) ETV
attr interpolationmode none
attr source ieee80211NotRetry(packetReceivedFromPeer)
attr title "packets received: without retry, vector(packetBytes)"
vector 71 MultiRadioShowcase.host1.wlan[1].mac packetReceivedFromLower:vector(packetBytes) ETV
attr interpolationmode none
attr title "packets received from lower layer, vector(packetBytes)"
vector 72 MultiRadioShowcase.host1.wlan[1].mac.dcf packetReceivedFromPeer:vector(packetBytes) ETV
attr interpolationmode none
attr title "packets received, vector(packetBytes)"
vector 73 MultiRadioShowcase.host1.wlan[1].mac.dcf packetReceivedFromPeerMulticast:vector(packetBytes) ETV
attr interpolationmode none
attr source ieee80211Multicast(packetReceivedFromPeer)
attr title "packets received: multicast, vector(packetBytes)"
vector 74 MultiRadioShowcase.host1.wlan[1].mac.dcf packetReceivedFromPeerBroadcast:vector(packetBytes) ETV
attr interpolationmode none
attr source ieee80211Broadcast(packetReceivedFromPeer)
attr title "packets received: broadcast, vector(packetBytes)"
vector 75 MultiRadioShowcase.host1.wlan[1].mac.dcf packetReceivedFromPeerWithoutRetry:vector(packetBytes) ETV
attr interpolationmode none
attr source ieee80211NotRetry(packetReceivedFromPeer)
attr title "packets received: without retry, vector(packetBytes)"
vector 76 MultiRadioShowcase.host2.wlan[1].agent sentRequest:vector ETV
attr title "sent requests, vector"
vector 77 MultiRadioShowcase.host1.wlan[1].agent sentRequest:vector ETV
attr title "sent requests, vector"
vector 78 MultiRadioShowcase.host2.wlan[0].agent sentRequest:vector ETV
attr title "sent requests, vector"
vector 79 MultiRadioShowcase.host2.wlan[1].mac.dcf.channelAccess.pendingQueue packetPushed:vector(packetBytes) ETV
attr interpolationmode none
attr title "packet pushed, vector(packetBytes)"
vector 80 MultiRadioShowcase.host2.wlan[1].mac.dcf.channelAccess.pendingQueue queueLength:vector ETV
attr interpolationmode sample-hold
attr source "count(packetPushed) - count(packetPopped) - count(packetRemoved) - count(packetDropped)"
attr title "queue length, vector"
vector 81 MultiRadioShowcase.host2.wlan[1].mac.dcf.channelAccess.contention backoffPeriodGenerated:vector ETV
attr interpolationmode none
attr title "backoff periods, vector"
vector 82 MultiRadioShowcase.host2.wlan[1].mac.dcf.channelAccess.contention backoffActive:vector ETV
attr interpolationmode sample-hold
attr source count(backoffStarted)-count(backoffStopped)
attr title "backoff active, vector"
vector 83 MultiRadioShowcase.host2.wlan[1].mac.dcf.channelAccess.pendingQueue packetPopped:vector(packetBytes) ETV
attr interpolationmode none
attr title "packet popped, vector(packetBytes)"
vector 84 MultiRadioShowcase.host2.wlan[1].mac.dcf.channelAccess.pendingQueue queueingTime:vector ETV
attr interpolationmode none
attr source queueingTime(packetPopped)
attr title "queueing times, vector"
attr unit s
vector 85 MultiRadioShowcase.host2.wlan[1].mac.dcf.channelAccess.inProgressFrames queueLength:vector ETV
attr interpolationmode sample-hold
attr source "count(packetEnqueued) - count(packetDequeued)"
attr title "queue length, vector"
vector 86 MultiRadioShowcase.host2.wlan[1].mac.dcf datarateSelected:vector ETV
attr interpolationmode none
attr title "datarates selected, vector"
vector 87 MultiRadioShowcase.host2.wlan[1].mac packetSentToLower:vector(packetBytes) ETV
attr interpolationmode none
attr title "packets sent to lower layer, vector(packetBytes)"
vector 88 MultiRadioShowcase.host2.wlan[1].mac.dcf frameSequenceActive:vector ETV
attr interpolationmode sample-hold
attr source count(frameSequenceStarted)-count(frameSequenceFinished)
attr title "frame sequence active, vector"
vector 89 MultiRadioShowcase.host2.wlan[1].radio transmissionState:vector ETV
attr interpolationmode sample-hold
attr source transmissionStateChanged
attr title "Radio transmission state, vector"
vector 90 MultiRadioShowcase.host2.wlan[1].mac.dcf packetSentToPeer:vector(packetBytes) ETV
attr interpolationmode none
attr title "packets sent, vector(packetBytes)"
vector 91 MultiRadioShowcase.host2.wlan[1].mac.dcf packetSentToPeerMulticast:vector(packetBytes) ETV
attr interpolationmode none
attr source ieee80211Multicast(packetSentToPeer)
attr title "packets sent: multicast, vector(packetBytes)"
vector 92 MultiRadioShowcase.host2.wlan[1].mac.dcf packetSentToPeerBroadcast:vector(packetBytes) ETV
attr interpolationmode none
attr source ieee80211Broadcast(packetSentToPeer)
attr title "packets sent: broadcast , vector(packetBytes)"
vector 93 MultiRadioShowcase.host2.wlan[1].mac.dcf packetSentToPeerWithoutRetry:vector(packetBytes) ETV
attr interpolationmode none
attr source ieee80211NotRetry(packetSentToPeer)
attr title "packets sent: without retry, vector(packetBytes)"
vector 94 MultiRadioShowcase.host2.wlan[1].mac.dcf.channelAccess.inProgressFrames queueingTime:vector ETV
attr interpolationmode none
attr source queueingTime(packetDequeued)
attr title "queueing times, vector"
vector 95 MultiRadioShowcase.accessPoint.wlan[0].mac packetReceivedFromLower:vector(packetBytes) ETV
attr interpolationmode none
attr title "packets received from lower layer, vector(packetBytes)"
vector 96 MultiRadioShowcase.accessPoint.wlan[0].mac.dcf packetReceivedFromPeer:vector(packetBytes) ETV
attr interpolationmode none
attr title "packets received, vector(packetBytes)"
vector 97 MultiRadioShowcase.accessPoint.wlan[0].mac.dcf packetReceivedFromPeerMulticast:vector(packetBytes) ETV
attr interpolationmode none
attr source ieee80211Multicast(packetReceivedFromPeer)
attr title "packets received: multicast, vector(packetBytes)"
vector 98 MultiRadioShowcase.accessPoint.wlan[0].mac.dcf packetReceivedFromPeerBroadcast:vector(packetBytes) ETV
attr interpolationmode none
attr source ieee80211Broadcast(packetReceivedFromPeer)
attr title "packets received: broadcast, vector(packetBytes)"
vector 99 MultiRadioShowcase.accessPoint.wlan[0].mac.dcf packetReceivedFromPeerWithoutRetry:vector(packetBytes) ETV
attr interpolationmode none
attr source ieee80211NotRetry(packetReceivedFromPeer)
attr title "packets received: without retry, vector(packetBytes)"
vector 100 MultiRadioShowcase.accessPoint.wlan[0].mac.dcf packetSentToPeerUnicast:vector(packetBytes) ETV
attr interpolationmode none
attr source ieee80211Unicast(packetSentToPeer)
attr title "packets sent: unicast, vector(packetBytes)"
vector 101 MultiRadioShowcase.accessPoint.wlan[0].mac.rx nav:vector ETV
attr interpolationmode linear
attr source navChanged
attr title "network allocation vector, vector"
vector 102 MultiRadioShowcase.host2.wlan[1].mac.dcf packetReceivedFromPeerUnicast:vector(packetBytes) ETV
attr interpolationmode none
attr source ieee80211Unicast(packetReceivedFromPeer)
attr title "packets received: unicast, vector(packetBytes)"
vector 103 MultiRadioShowcase.host1.wlan[0].mac.rx nav:vector ETV
attr interpolationmode linear
attr source navChanged
attr title "network allocation vector, vector"
vector 104 MultiRadioShowcase.host1.wlan[0].mac.dcf packetDrop:vector(packetBytes) ETV
attr interpolationmode none
attr source packetDropped
attr title "packet drops, vector(packetBytes)"
vector 105 MultiRadioShowcase.host1.wlan[0].mac.dcf packetDropNotAddressedToUs:vector(packetBytes) ETV
attr interpolationmode none
attr source packetDropReasonIsNotAddressedToUs(packetDropped)
attr title "packet drops: not addressed to us, vector(packetBytes)"
vector 106 MultiRadioShowcase.host1.wlan[0].mac packetDrop:vector(packetBytes) ETV
attr interpolationmode none
attr source packetDropped
attr title "packet drops, vector(packetBytes)"
vector 107 MultiRadioShowcase.host1.wlan[0].mac packetDropNotAddressedToUs:vector(packetBytes) ETV
attr interpolationmode none
attr source packetDropReasonIsNotAddressedToUs(packetDropped)
attr title "packet drops: not addressed to us, vector(packetBytes)"
vector 108 MultiRadioShowcase.host1.wlan[1].mac.rx nav:vector ETV
attr interpolationmode linear
attr source navChanged
attr title "network allocation vector, vector"
vector 109 MultiRadioShowcase.host1.wlan[1].mac.dcf packetDrop:vector(packetBytes) ETV
attr interpolationmode none
attr source packetDropped
attr title "packet drops, vector(packetBytes)"
vector 110 MultiRadioShowcase.host1.wlan[1].mac.dcf packetDropNotAddressedToUs:vector(packetBytes) ETV
attr interpolationmode none
attr source packetDropReasonIsNotAddressedToUs(packetDropped)
attr title "packet drops: not addressed to us, vector(packetBytes)"
vector 111 MultiRadioShowcase.host1.wlan[1].mac packetDrop:vector(packetBytes) ETV
attr interpolationmode none
attr source packetDropped
attr title "packet drops, vector(packetBytes)"
vector 112 MultiRadioShowcase.host1.wlan[1].mac packetDropNotAddressedToUs:vector(packetBytes) ETV
attr interpolationmode none
attr source packetDropReasonIsNotAddressedToUs(packetDropped)
attr title "packet drops: not addressed to us, vector(packetBytes)"
vector 113 MultiRadioShowcase.host2.wlan[1].mac.dcf packetSentToPeerUnicast:vector(packetBytes) ETV
attr interpolationmode none
attr source ieee80211Unicast(packetSentToPeer)
attr title "packets sent: unicast, vector(packetBytes)"
vector 114 MultiRadioShowcase.accessPoint.wlan[0].mac.dcf packetReceivedFromPeerUnicast:vector(packetBytes) ETV
attr interpolationmode none
attr source ieee80211Unicast(packetReceivedFromPeer)
attr title "packets received: unicast, vector(packetBytes)"
vector 115 MultiRadioShowcase.host1.wlan[0].agent sentRequest:vector ETV
attr title "sent requests, vector"
vector 116 MultiRadioShowcase.host1.wlan[1].mac.dcf.channelAccess.pendingQueue packetPushed:vector(packetBytes) ETV
attr interpolationmode none
attr title "packet pushed, vector(packetBytes)"
vector 117 MultiRadioShowcase.host1.wlan[1].mac.dcf.channelAccess.pendingQueue queueLength:vector ETV
attr interpolationmode sample-hold
attr source "count(packetPushed) - count(packetPopped) - count(packetRemoved) - count(packetDropped)"
attr title "queue length, vector"
vector 118 MultiRadioShowcase.host1.wlan[1].mac.dcf.channelAccess.contention backoffPeriodGenerated:vector ETV
attr interpolationmode none
attr title "backoff periods, vector"
vector 119 MultiRadioShowcase.host1.wlan[1].mac.dcf.channelAccess.contention backoffActive:vector ETV
attr interpolationmode sample-hold
attr source count(backoffStarted)-count(backoffStopped)
attr title "backoff active, vector"
vector 120 MultiRadioShowcase.host1.wlan[1].mac.dcf.channelAccess.pendingQueue packetPopped:vector(packetBytes) ETV
attr interpolationmode none
attr title "packet popped, vector(packetBytes)"
vector 121 MultiRadioShowcase.host1.wlan[1].mac.dcf.channelAccess.pendingQueue queueingTime:vector ETV
attr interpolationmode none
attr source queueingTime(packetPopped)
attr title "queueing times, vector"
attr unit s
vector 122 MultiRadioShowcase.host1.wlan[1].mac.dcf.channelAccess.inProgressFrames queueLength:vector ETV
attr interpolationmode sample-hold
attr source "count(packetEnqueued) - count(packetDequeued)"
attr title "queue length, vector"
vector 123 MultiRadioShowcase.host1.wlan[1].mac.dcf datarateSelected:vector ETV
attr interpolationmode none
attr title "datarates selected, vector"
vector 124 MultiRadioShowcase.host1.wlan[1].mac packetSentToLower:vector(packetBytes) ETV
attr interpolationmode none
attr title "packets sent to lower layer, vector(packetBytes)"
vector 125 MultiRadioShowcase.host1.wlan[1].mac.dcf frameSequenceActive:vector ETV
attr interpolationmode sample-hold
attr source count(frameSequenceStarted)-count(frameSequenceFinished)
attr title "frame sequence active, vector"
vector 126 MultiRadioShowcase.host1.wlan[1].radio transmissionState:vector ETV
attr interpolationmode sample-hold
attr source transmissionStateChanged
attr title "Radio transmission state, vector"
vector 127 MultiRadioShowcase.host1.wlan[1].mac.dcf packetSentToPeer:vector(packetBytes) ETV
attr interpolationmode none
attr title "packets sent, vector(packetBytes)"
vector 128 MultiRadioShowcase.host1.wlan[1].mac.dcf packetSentToPeerMulticast:vector(packetBytes) ETV
attr interpolationmode none
attr source ieee80211Multicast(packetSentToPeer)
attr title "packets sent: multicast, vector(packetBytes)"
vector 129 MultiRadioShowcase.host1.wlan[1].mac.dcf packetSentToPeerBroadcast:vector(packetBytes) ETV
attr interpolationmode none
attr source ieee80211Broadcast(packetSentToPeer)
attr title "packets sent: broadcast , vector(packetBytes)"
vector 130 MultiRadioShowcase.host1.wlan[1].mac.dcf packetSentToPeerWithoutRetry:vector(packetBytes) ETV
attr interpolationmode none
attr source ieee80211NotRetry(packetSentToPeer)
attr title "packets sent: without retry, vector(packetBytes)"
vector 131 MultiRadioShowcase.host1.wlan[1].mac.dcf.channelAccess.inProgressFrames queueingTime:vector ETV
attr interpolationmode none
attr source queueingTime(packetDequeued)
attr title "queueing times, vector"
vector 132 MultiRadioShowcase.host2.wlan[1].mac.rx nav:vector ETV
attr interpolationmode linear
attr source navChanged
attr title "network allocation vector, vector"
vector 133 MultiRadioShowcase.host2.wlan[1].mac.dcf packetDrop:vector(packetBytes) ETV
attr interpolationmode none
attr source packetDropped
attr title "packet drops, vector(packetBytes)"
vector 134 MultiRadioShowcase.host2.wlan[1].mac.dcf packetDropNotAddressedToUs:vector(packetBytes) ETV
attr interpolationmode none
attr source packetDropReasonIsNotAddressedToUs(packetDropped)
attr title "packet drops: not addressed to us, vector(packetBytes)"
vector 135 MultiRadioShowcase.host2.wlan[1].mac packetDrop:vector(packetBytes) ETV
attr interpolationmode none
attr source packetDropped
attr title "packet drops, vector(packetBytes)"
vector 136 MultiRadioShowcase.host2.wlan[1].mac packetDropNotAddressedToUs:vector(packetBytes) ETV
attr interpolationmode none
attr source packetDropReasonIsNotAddressedToUs(packetDropped)
attr title "packet drops: not addressed to us, vector(packetBytes)"
vector 137 MultiRadioShowcase.host1.wlan[1].mac.dcf packetReceivedFromPeerUnicast:vector(packetBytes) ETV
attr interpolationmode none
attr source ieee80211Unicast(packetReceivedFromPeer)
attr title "packets received: unicast, vector(packetBytes)"
vector 138 MultiRadioShowcase.host1.wlan[1].mac.dcf packetSentToPeerUnicast:vector(packetBytes) ETV
attr interpolationmode none
attr source ieee80211Unicast(packetSentToPeer)
attr title "packets sent: unicast, vector(packetBytes)"
vector 139 MultiRadioShowcase.host2.wlan[0].mac.dcf.channelAccess.pendingQueue packetPushed:vector(packetBytes) ETV
attr interpolationmode none
attr title "packet pushed, vector(packetBytes)"
vector 140 MultiRadioShowcase.host2.wlan[0].mac.dcf.channelAccess.pendingQueue queueLength:vector ETV
attr interpolationmode sample-hold
attr source "count(packetPushed) - count(packetPopped) - count(packetRemoved) - count(packetDropped)"
attr title "queue length, vector"
vector 141 MultiRadioShowcase.host2.wlan[0].mac.dcf.channelAccess.contention backoffPeriodGenerated:vector ETV
attr interpolationmode none
attr title "backoff periods, vector"
vector 142 MultiRadioShowcase.host2.wlan[0].mac.dcf.channelAccess.contention backoffActive:vector ETV
attr interpolationmode sample-hold
attr source count(backoffStarted)-count(backoffStopped)
attr title "backoff active, vector"
vector 143 MultiRadioShowcase.host2.wlan[0].mac.dcf.channelAccess.pendingQueue packetPopped:vector(packetBytes) ETV
attr interpolationmode none
attr title "packet popped, vector(packetBytes)"
vector 144 MultiRadioShowcase.host2.wlan[0].mac.dcf.channelAccess.pendingQueue queueingTime:vector ETV
attr interpolationmode none
attr source queueingTime(packetPopped)
attr title "queueing times, vector"
attr unit s
vector 145 MultiRadioShowcase.host2.wlan[0].mac.dcf.channelAccess.inProgressFrames queueLength:vector ETV
attr interpolationmode sample-hold
attr source "count(packetEnqueued) - count(packetDequeued)"
attr title "queue length, vector"
vector 146 MultiRadioShowcase.host2.wlan[0].mac.dcf datarateSelected:vector ETV
attr interpolationmode none
attr title "datarates selected, vector"
vector 147 MultiRadioShowcase.host2.wlan[0].mac packetSentToLower:vector(packetBytes) ETV
attr interpolationmode none
attr title "packets sent to lower layer, vector(packetBytes)"
vector 148 MultiRadioShowcase.host2.wlan[0].mac.dcf frameSequenceActive:vector ETV
attr interpolationmode sample-hold
attr source count(frameSequenceStarted)-count(frameSequenceFinished)
attr title "frame sequence active, vector"
vector 149 MultiRadioShowcase.host2.wlan[0].radio transmissionState:vector ETV
attr interpolationmode sample-hold
attr source transmissionStateChanged
attr title "Radio transmission state, vector"
vector 150 MultiRadioShowcase.host2.wlan[0].mac.dcf packetSentToPeer:vector(packetBytes) ETV
attr interpolationmode none
attr title "packets sent, vector(packetBytes)"
vector 151 MultiRadioShowcase.host2.wlan[0].mac.dcf packetSentToPeerMulticast:vector(packetBytes) ETV
attr interpolationmode none
attr source ieee80211Multicast(packetSentToPeer)
attr title "packets sent: multicast, vector(packetBytes)"
vector 152 MultiRadioShowcase.host2.wlan[0].mac.dcf packetSentToPeerBroadcast:vector(packetBytes) ETV
attr interpolationmode none
attr source ieee80211Broadcast(packetSentToPeer)
attr title "packets sent: broadcast , vector(packetBytes)"
vector 153 MultiRadioShowcase.host2.wlan[0].mac.dcf packetSentToPeerWithoutRetry:vector(packetBytes) ETV
attr interpolationmode none
attr source ieee80211NotRetry(packetSentToPeer)
attr title "packets sent: without retry, vector(packetBytes)"
vector 154 MultiRadioShowcase.host2.wlan[0].mac.dcf.channelAccess.inProgressFrames queueingTime:vector ETV
attr interpolationmode none
attr source queueingTime(packetDequeued)
attr title "queueing times, vector"
vector 155 MultiRadioShowcase.accessPoint.wlan[1].mac packetReceivedFromLower:vector(packetBytes) ETV
attr interpolationmode none
attr title "packets received from lower layer, vector(packetBytes)"
vector 156 MultiRadioShowcase.accessPoint.wlan[1].mac.dcf packetReceivedFromPeer:vector(packetBytes) ETV
attr interpolationmode none
attr title "packets received, vector(packetBytes)"
vector 157 MultiRadioShowcase.accessPoint.wlan[1].mac.dcf packetReceivedFromPeerMulticast:vector(packetBytes) ETV
attr interpolationmode none
attr source ieee80211Multicast(packetReceivedFromPeer)
attr title "packets received: multicast, vector(packetBytes)"
vector 158 MultiRadioShowcase.accessPoint.wlan[1].mac.dcf packetReceivedFromPeerBroadcast:vector(packetBytes) ETV
attr interpolationmode none
attr source ieee80211Broadcast(packetReceivedFromPeer)
attr title "packets received: broadcast, vector(packetBytes)"
vector 159 MultiRadioShowcase.accessPoint.wlan[1].mac.dcf packetReceivedFromPeerWithoutRetry:vector(packetBytes) ETV
attr interpolationmode none
attr source ieee80211NotRetry(packetReceivedFromPeer)
attr title "packets received: without retry, vector(packetBytes)"
vector 160 MultiRadioShowcase.accessPoint.wlan[1].mac.dcf packetSentToPeerUnicast:vector(packetBytes) ETV
attr interpolationmode none
attr source ieee80211Unicast(packetSentToPeer)
attr title "packets sent: unicast, vector(packetBytes)"
vector 161 MultiRadioShowcase.accessPoint.wlan[1].mac.rx nav:vector ETV
attr interpolationmode linear
attr source navChanged
attr title "network allocation vector, vector"
vector 162 MultiRadioShowcase.host2.wlan[0].mac.dcf packetReceivedFromPeerUnicast:vector(packetBytes) ETV
attr interpolationmode none
attr source ieee80211Unicast(packetReceivedFromPeer)
attr title "packets received: unicast, vector(packetBytes)"
vector 163 MultiRadioShowcase.host2.wlan[0].mac.dcf packetSentToPeerUnicast:vector(packetBytes) ETV
attr interpolationmode none
attr source ieee80211Unicast(packetSentToPeer)
attr title "packets sent: unicast, vector(packetBytes)"
vector 164 MultiRadioShowcase.accessPoint.wlan[1].mac.dcf packetReceivedFromPeerUnicast:vector(packetBytes) ETV
attr interpolationmode none
attr source ieee80211Unicast(packetReceivedFromPeer)
attr title "packets received: unicast, vector(packetBytes)"
vector 165 MultiRadioShowcase.host1.wlan[0].mac.dcf.channelAccess.pendingQueue packetPushed:vector(packetBytes) ETV
attr interpolationmode none
attr title "packet pushed, vector(packetBytes)"
vector 166 MultiRadioShowcase.host1.wlan[0].mac.dcf.channelAccess.pendingQueue queueLength:vector ETV
attr interpolationmode sample-hold
attr source "count(packetPushed) - count(packetPopped) - count(packetRemoved) - count(packetDropped)"
attr title "queue length, vector"
vector 167 MultiRadioShowcase.host1.wlan[0].mac.dcf.channelAccess.contention backoffPeriodGenerated:vector ETV
attr interpolationmode none
attr title "backoff periods, vector"
vector 168 MultiRadioShowcase.host1.wlan[0].mac.dcf.channelAccess.contention backoffActive:vector ETV
attr interpolationmode sample-hold
attr source count(backoffStarted)-count(backoffStopped)
attr title "backoff active, vector"
vector 169 MultiRadioShowcase.host1.wlan[0].mac.dcf.channelAccess.pendingQueue packetPopped:vector(packetBytes) ETV
attr interpolationmode none
attr title "packet popped, vector(packetBytes)"
vector 170 MultiRadioShowcase.host1.wlan[0].mac.dcf.channelAccess.pendingQueue queueingTime:vector ETV
attr interpolationmode none
attr source queueingTime(packetPopped)
attr title "queueing times, vector"
attr unit s
vector 171 MultiRadioShowcase.host1.wlan[0].mac.dcf.channelAccess.inProgressFrames queueLength:vector ETV
attr interpolationmode sample-hold
attr source "count(packetEnqueued) - count(packetDequeued)"
attr title "queue length, vector"
vector 172 MultiRadioShowcase.host1.wlan[0].mac.dcf datarateSelected:vector ETV
attr interpolationmode none
attr title "datarates selected, vector"
vector 173 MultiRadioShowcase.host1.wlan[0].mac packetSentToLower:vector(packetBytes) ETV
attr interpolationmode none
attr title "packets sent to lower layer, vector(packetBytes)"
vector 174 MultiRadioShowcase.host1.wlan[0].mac.dcf frameSequenceActive:vector ETV
attr interpolationmode sample-hold
attr source count(frameSequenceStarted)-count(frameSequenceFinished)
attr title "frame sequence active, vector"
vector 175 MultiRadioShowcase.host1.wlan[0].radio transmissionState:vector ETV
attr interpolationmode sample-hold
attr source transmissionStateChanged
attr title "Radio transmission state, vector"
vector 176 MultiRadioShowcase.host1.wlan[0].mac.dcf packetSentToPeer:vector(packetBytes) ETV
attr interpolationmode none
attr title "packets sent, vector(packetBytes)"
vector 177 MultiRadioShowcase.host1.wlan[0].mac.dcf packetSentToPeerMulticast:vector(packetBytes) ETV
attr interpolationmode none
attr source ieee80211Multicast(packetSentToPeer)
attr title "packets sent: multicast, vector(packetBytes)"
vector 178 MultiRadioShowcase.host1.wlan[0].mac.dcf packetSentToPeerBroadcast:vector(packetBytes) ETV
attr interpolationmode none
attr source ieee80211Broadcast(packetSentToPeer)
attr title "packets sent: broadcast , vector(packetBytes)"
vector 179 MultiRadioShowcase.host1.wlan[0].mac.dcf packetSentToPeerWithoutRetry:vector(packetBytes) ETV
attr interpolationmode none
attr source ieee80211NotRetry(packetSentToPeer)
attr title "packets sent: without retry, vector(packetBytes)"
vector 180 MultiRadioShowcase.host1.wlan[0].mac.dcf.channelAccess.inProgressFrames queueingTime:vector ETV
attr interpolationmode none
attr source queueingTime(packetDequeued)
attr title "queueing times, vector"
vector 181 MultiRadioShowcase.host1.wlan[0].mac.dcf packetReceivedFromPeerUnicast:vector(packetBytes) ETV
attr interpolationmode none
attr source ieee80211Unicast(packetReceivedFromPeer)
attr title "packets received: unicast, vector(packetBytes)"
vector 182 MultiRadioShowcase.host1.wlan[0].mac.dcf packetSentToPeerUnicast:vector(packetBytes) ETV
attr interpolationmode none
attr source ieee80211Unicast(packetSentToPeer)
attr title "packets sent: unicast, vector(packetBytes)"
vector 183 MultiRadioShowcase.host2.wlan[1].agent dropConfirm:vector ETV
attr title "dropped confirms, vector"
vector 184 MultiRadioShowcase.host1.wlan[1].agent acceptConfirm:vector ETV
attr title "accepted confirms, vector"
vector 185 MultiRadioShowcase.host2.wlan[0].agent acceptConfirm:vector ETV
attr title "accepted confirms, vector"
vector 186 MultiRadioShowcase.host2.wlan[0].mac.rx nav:vector ETV
attr interpolationmode linear
attr source navChanged
attr title "network allocation vector, vector"
vector 187 MultiRadioShowcase.host1.wlan[0].agent acceptConfirm:vector ETV
attr title "accepted confirms, vector"
0	0	0	0
0	0	0	0
0	0	0	2
0	355	0.293768234528	3
0	364	0.293806234528	2
0	397	0.294073487202	3
0	409	0.294107487202	2
0	1153	0.593768234528	3
0	1162	0.593810234528	2
0	1215	0.593977487202	3
0	1227	0.594011487202	2
0	1237	0.594241487202	3
0	1246	0.594283487202	2
0	1303	0.594930739876	3
0	1315	0.594964739876	2
0	1325	0.595634739876	3
0	1334	0.595676739876	2
0	1387	0.59582399255	3
0	1399	0.59585799255	2
1	0	0	0
1	173	0.193768234528	0
1	1150	0.593768234528	0
1	1301	0.594920739876	0
2	0	0	0
2	0	0	0
2	0	0	2
2	202	0.215314512467	3
2	211	0.215352512467	2
2	245	0.215939765141	3
2	257	0.215973765141	2
2	550	0.515314512467	3
2	559	0.515356512467	2
2	613	0.516103765141	3
2	625	0.516137765141	2
2	635	0.516487765141	3
2	644	0.516529765141	2
2	701	0.516977017815	3
2	713	0.517011017815	2
2	723	0.517061017815	3
2	732	0.517103017815	2
2	785	0.517610270489	3
2	797	0.517644270489	2
3	0	0	0
3	74	0.115314512467	0
3	547	0.515314512467	0
3	699	0.516967017815	0
4	0	0	0
4	0	0	0
4	0	0	2
4	272	0.231276162993	3
4	281	0.231314162993	2
4	308	0.231521360447	3
4	318	0.231555360447	2
4	825	0.531276162993	3
4	834	0.531318162993	2
4	879	0.531945360447	3
4	889	0.531979360447	2
4	897	0.532369360447	3
4	906	0.532411360447	2
4	955	0.532938557901	3
4	965	0.532972557901	2
4	973	0.533602557901	3
4	982	0.533644557901	2
4	1027	0.534171755355	3
4	1037	0.534205755355	2
5	0	0	0
5	79	0.131276162993	0
5	822	0.531276162993	0
5	951	0.532928557901	0
6	0	0	0
6	0	0	0
6	0	0	2
6	108	0.189393898903	3
6	117	0.189431898903	2
6	150	0.189679096357	3
6	160	0.189713096357	2
6	1083	0.589553898903	3
6	1092	0.589591898903	2
6	1125	0.589839096357	3
6	1135	0.589873096357	2
7	0	0	0
7	49	0.089260381577	0
7	520	0.489260381577	0
8	0	0	0
8	0	0	0
8	0	0	2
8	26	0.089177300176	3
8	35	0.089223300176	2
8	84	0.189177300176	3
8	93	0.189223300176	2
8	131	0.18962249763	3
8	140	0.18966849763	2
8	226	0.215883138804	3
8	235	0.215929138804	2
8	331	0.289177300176	3
8	340	0.289223300176	2
8	378	0.294016860865	3
8	387	0.294062860865	2
8	449	0.389177300176	3
8	458	0.389223300176	2
8	496	0.489177300176	3
8	505	0.489223300176	2
8	570	0.515367138804	3
8	581	0.515401138804	2
8	593	0.516051138804	3
8	602	0.516093138804	2
8	655	0.516540391478	3
8	666	0.516574391478	2
8	677	0.516924391478	3
8	686	0.516966391478	2
8	743	0.517113644152	3
8	754	0.517147644152	2
8	765	0.517557644152	3
8	774	0.517599644152	2
8	1059	0.589177300176	3
8	1068	0.589223300176	2
8	1106	0.58978249763	3
8	1115	0.58982849763	2
8	1173	0.593820860865	3
8	1184	0.593854860865	2
8	1195	0.593924860865	3
8	1204	0.593966860865	2
8	1257	0.594294113539	3
8	1268	0.594328113539	2
8	1279	0.594878113539	3
8	1288	0.594920113539	2
8	1345	0.595687366213	3
8	1356	0.595721366213	2
8	1367	0.595771366213	3
8	1376	0.595813366213	2
8	1448	0.689177300176	3
8	1457	0.689223300176	2
9	0	0	0
10	0	0	0
10	0	0	0
10	0	0	2
10	5	0.005671297573	3
10	14	0.005717297573	2
10	55	0.105671297573	3
10	64	0.105717297573	2
10	182	0.205671297573	3
10	191	0.205717297573	2
10	291	0.23146476172	3
10	300	0.23151076172	2
10	425	0.305671297573	3
10	434	0.305717297573	2
10	474	0.405671297573	3
10	483	0.405717297573	2
10	526	0.505671297573	3
10	535	0.505717297573	2
10	843	0.53132876172	3
10	853	0.53136276172	2
10	861	0.53189276172	3
10	870	0.53193476172	2
10	915	0.532421959174	3
10	925	0.532455959174	2
10	933	0.532885959174	3
10	942	0.532927959174	2
10	991	0.533655156628	3
10	1001	0.533689156628	2
10	1009	0.534119156628	3
10	1018	0.534161156628	2
10	1423	0.605671297573	3
10	1433	0.605717297573	2
10	1473	0.705671297573	3
10	1482	0.705717297573	2
11	0	0	0
12	0	0	1
12	31	0.089177926513	3
12	40	0.089223926513	1
12	89	0.189177926513	3
12	98	0.189223926513	1
12	113	0.189394912938	3
12	123	0.189432912938	1
12	136	0.189623123967	3
12	145	0.189669123967	1
12	155	0.189680110392	3
12	166	0.189714110392	1
12	204	0.215314512467	3
12	210	0.215352512467	1
12	231	0.215883765141	3
12	239	0.215929765141	1
12	247	0.215939765141	3
12	256	0.215973765141	1
12	336	0.289177926513	3
12	345	0.289223926513	1
12	355	0.293768234528	0
12	364	0.293806234528	1
12	383	0.294017487202	3
12	391	0.294063487202	1
12	397	0.294073487202	0
12	409	0.294107487202	1
12	454	0.389177926513	3
12	463	0.389223926513	1
12	501	0.489177926513	3
12	510	0.489223926513	1
12	552	0.515314512467	3
12	558	0.515356512467	1
12	575	0.515367765141	3
12	586	0.515401765141	1
12	598	0.516051765141	3
12	606	0.516093765141	1
12	615	0.516103765141	3
12	624	0.516137765141	1
12	637	0.516487765141	3
12	643	0.516529765141	1
12	660	0.516541017815	3
12	671	0.516575017815	1
12	682	0.516925017815	3
12	690	0.516967017815	1
12	703	0.516977017815	3
12	712	0.517011017815	1
12	725	0.517061017815	3
12	731	0.517103017815	1
12	748	0.517114270489	3
12	759	0.517148270489	1
12	770	0.517558270489	3
12	778	0.517600270489	1
12	787	0.517610270489	3
12	796	0.517644270489	1
12	1064	0.589177926513	3
12	1073	0.589223926513	1
12	1088	0.589554912938	3
12	1098	0.589592912938	1
12	1111	0.589783123967	3
12	1120	0.589829123967	1
12	1130	0.589840110392	3
12	1141	0.589874110392	1
12	1153	0.593768234528	0
12	1162	0.593810234528	1
12	1178	0.593821487202	3
12	1189	0.593855487202	1
12	1200	0.593925487202	3
12	1208	0.593967487202	1
12	1215	0.593977487202	0
12	1227	0.594011487202	1
12	1237	0.594241487202	0
12	1246	0.594283487202	1
12	1262	0.594294739876	3
12	1273	0.594328739876	1
12	1284	0.594878739876	3
12	1292	0.594920739876	1
12	1303	0.594930739876	0
12	1315	0.594964739876	1
12	1325	0.595634739876	0
12	1334	0.595676739876	1
12	1350	0.59568799255	3
12	1361	0.59572199255	1
12	1372	0.59577199255	3
12	1380	0.59581399255	1
12	1387	0.59582399255	0
12	1399	0.59585799255	1
12	1453	0.689177926513	3
12	1462	0.689223926513	1
13	0	0	1
13	32	0.089177926513	3
13	41	0.089223926513	1
13	90	0.189177926513	3
13	99	0.189223926513	1
13	114	0.189394912938	3
13	124	0.189432912938	1
13	137	0.189623123967	3
13	146	0.189669123967	1
13	156	0.189680110392	3
13	167	0.189714110392	1
13	202	0.215314512467	0
13	211	0.215352512467	1
13	232	0.215883765141	3
13	240	0.215929765141	1
13	245	0.215939765141	0
13	257	0.215973765141	1
13	337	0.289177926513	3
13	346	0.289223926513	1
13	357	0.293768234528	3
13	363	0.293806234528	1
13	384	0.294017487202	3
13	392	0.294063487202	1
13	399	0.294073487202	3
13	408	0.294107487202	1
13	455	0.389177926513	3
13	464	0.389223926513	1
13	502	0.489177926513	3
13	511	0.489223926513	1
13	550	0.515314512467	0
13	559	0.515356512467	1
13	576	0.515367765141	3
13	587	0.515401765141	1
13	599	0.516051765141	3
13	607	0.516093765141	1
13	613	0.516103765141	0
13	625	0.516137765141	1
13	635	0.516487765141	0
13	644	0.516529765141	1
13	661	0.516541017815	3
13	672	0.516575017815	1
13	683	0.516925017815	3
13	691	0.516967017815	1
13	701	0.516977017815	0
13	713	0.517011017815	1
13	723	0.517061017815	0
13	732	0.517103017815	1
13	749	0.517114270489	3
13	760	0.517148270489	1
13	771	0.517558270489	3
13	779	0.517600270489	1
13	785	0.517610270489	0
13	797	0.517644270489	1
13	1065	0.589177926513	3
13	1074	0.589223926513	1
13	1089	0.589554912938	3
13	1099	0.589592912938	1
13	1112	0.589783123967	3
13	1121	0.589829123967	1
13	1131	0.589840110392	3
13	1142	0.589874110392	1
13	1155	0.593768234528	3
13	1161	0.593810234528	1
13	1179	0.593821487202	3
13	1190	0.593855487202	1
13	1201	0.593925487202	3
13	1209	0.593967487202	1
13	1217	0.593977487202	3
13	1226	0.594011487202	1
13	1239	0.594241487202	3
13	1245	0.594283487202	1
13	1263	0.594294739876	3
13	1274	0.594328739876	1
13	1285	0.594878739876	3
13	1293	0.594920739876	1
13	1305	0.594930739876	3
13	1314	0.594964739876	1
13	1327	0.595634739876	3
13	1333	0.595676739876	1
13	1351	0.59568799255	3
13	1362	0.59572199255	1
13	1373	0.59577199255	3
13	1381	0.59581399255	1
13	1389	0.59582399255	3
13	1398	0.59585799255	1
13	1454	0.689177926513	3
13	1463	0.689223926513	1
14	0	0	1
14	8	0.0056718963	3
14	15	0.0057178963	1
14	58	0.1056718963	3
14	65	0.1057178963	1
14	185	0.2056718963	3
14	192	0.2057178963	1
14	272	0.231276162993	0
14	281	0.231314162993	1
14	294	0.231465360447	3
14	301	0.231511360447	1
14	308	0.231521360447	0
14	318	0.231555360447	1
14	428	0.3056718963	3
14	435	0.3057178963	1
14	477	0.4056718963	3
14	484	0.4057178963	1
14	529	0.5056718963	3
14	536	0.5057178963	1
14	825	0.531276162993	0
14	834	0.531318162993	1
14	846	0.531329360447	3
14	854	0.531363360447	1
14	864	0.531893360447	3
14	871	0.531935360447	1
14	879	0.531945360447	0
14	889	0.531979360447	1
14	897	0.532369360447	0
14	906	0.532411360447	1
14	918	0.532422557901	3
14	926	0.532456557901	1
14	936	0.532886557901	3
14	943	0.532928557901	1
14	955	0.532938557901	0
14	965	0.532972557901	1
14	973	0.533602557901	0
14	982	0.533644557901	1
14	994	0.533655755355	3
14	1002	0.533689755355	1
14	1012	0.534119755355	3
14	1019	0.534161755355	1
14	1027	0.534171755355	0
14	1037	0.534205755355	1
14	1426	0.6056718963	3
14	1434	0.6057178963	1
14	1476	0.7056718963	3
14	1483	0.7057178963	1
15	0	0	1
15	30	0.089177898903	3
15	37	0.089223898903	1
15	88	0.189177898903	3
15	95	0.189223898903	1
15	108	0.189393898903	0
15	117	0.189431898903	1
15	135	0.189623096357	3
15	142	0.189669096357	1
15	150	0.189679096357	0
15	160	0.189713096357	1
15	208	0.215315526502	3
15	220	0.215353526502	1
15	230	0.215883737531	3
15	237	0.215929737531	1
15	251	0.215940779176	3
15	263	0.215974779176	1
15	335	0.289177898903	3
15	342	0.289223898903	1
15	361	0.293769248563	3
15	373	0.293807248563	1
15	382	0.294017459592	3
15	389	0.294063459592	1
15	403	0.294074501237	3
15	415	0.294108501237	1
15	453	0.389177898903	3
15	460	0.389223898903	1
15	500	0.489177898903	3
15	507	0.489223898903	1
15	556	0.515315526502	3
15	567	0.515357526502	1
15	574	0.515367737531	3
15	584	0.515401737531	1
15	597	0.516051737531	3
15	604	0.516093737531	1
15	619	0.516104779176	3
15	631	0.516138779176	1
15	641	0.516488779176	3
15	652	0.516530779176	1
15	659	0.516540990205	3
15	669	0.516574990205	1
15	681	0.516924990205	3
15	688	0.516966990205	1
15	707	0.51697803185	3
15	719	0.51701203185	1
15	729	0.51706203185	3
15	740	0.51710403185	1
15	747	0.517114242879	3
15	757	0.517148242879	1
15	769	0.517558242879	3
15	776	0.517600242879	1
15	791	0.517611284524	3
15	803	0.517645284524	1
15	1063	0.589177898903	3
15	1070	0.589223898903	1
15	1083	0.589553898903	0
15	1092	0.589591898903	1
15	1110	0.589783096357	3
15	1117	0.589829096357	1
15	1125	0.589839096357	0
15	1135	0.589873096357	1
15	1159	0.593769248563	3
15	1170	0.593811248563	1
15	1177	0.593821459592	3
15	1187	0.593855459592	1
15	1199	0.593925459592	3
15	1206	0.593967459592	1
15	1221	0.593978501237	3
15	1233	0.594012501237	1
15	1243	0.594242501237	3
15	1254	0.594284501237	1
15	1261	0.594294712266	3
15	1271	0.594328712266	1
15	1283	0.594878712266	3
15	1290	0.594920712266	1
15	1309	0.594931753911	3
15	1321	0.594965753911	1
15	1331	0.595635753911	3
15	1342	0.595677753911	1
15	1349	0.59568796494	3
15	1359	0.59572196494	1
15	1371	0.59577196494	3
15	1378	0.59581396494	1
15	1393	0.595825006585	3
15	1405	0.595859006585	1
15	1452	0.689177898903	3
15	1459	0.689223898903	1
16	0	0	1
16	26	0.089177300176	0
16	35	0.089223300176	1
16	84	0.189177300176	0
16	93	0.189223300176	1
16	111	0.18939449763	3
16	118	0.18943249763	1
16	131	0.18962249763	0
16	140	0.18966849763	1
16	153	0.189679695084	3
16	163	0.189713695084	1
16	205	0.215315138804	3
16	214	0.215353138804	1
16	226	0.215883138804	0
16	235	0.215929138804	1
16	248	0.215940391478	3
16	259	0.215974391478	1
16	331	0.289177300176	0
16	340	0.289223300176	1
16	358	0.293768860865	3
16	367	0.293806860865	1
16	378	0.294016860865	0
16	387	0.294062860865	1
16	400	0.294074113539	3
16	411	0.294108113539	1
16	449	0.389177300176	0
16	458	0.389223300176	1
16	496	0.489177300176	0
16	505	0.489223300176	1
16	553	0.515315138804	3
16	561	0.515357138804	1
16	570	0.515367138804	0
16	581	0.515401138804	1
16	593	0.516051138804	0
16	602	0.516093138804	1
16	616	0.516104391478	3
16	627	0.516138391478	1
16	638	0.516488391478	3
16	646	0.516530391478	1
16	655	0.516540391478	0
16	666	0.516574391478	1
16	677	0.516924391478	0
16	686	0.516966391478	1
16	704	0.516977644152	3
16	715	0.517011644152	1
16	726	0.517061644152	3
16	734	0.517103644152	1
16	743	0.517113644152	0
16	754	0.517147644152	1
16	765	0.517557644152	0
16	774	0.517599644152	1
16	788	0.517610896826	3
16	799	0.517644896826	1
16	1059	0.589177300176	0
16	1068	0.589223300176	1
16	1086	0.58955449763	3
16	1093	0.58959249763	1
16	1106	0.58978249763	0
16	1115	0.58982849763	1
16	1128	0.589839695084	3
16	1138	0.589873695084	1
16	1156	0.593768860865	3
16	1164	0.593810860865	1
16	1173	0.593820860865	0
16	1184	0.593854860865	1
16	1195	0.593924860865	0
16	1204	0.593966860865	1
16	1218	0.593978113539	3
16	1229	0.594012113539	1
16	1240	0.594242113539	3
16	1248	0.594284113539	1
16	1257	0.594294113539	0
16	1268	0.594328113539	1
16	1279	0.594878113539	0
16	1288	0.594920113539	1
16	1306	0.594931366213	3
16	1317	0.594965366213	1
16	1328	0.595635366213	3
16	1336	0.595677366213	1
16	1345	0.595687366213	0
16	1356	0.595721366213	1
16	1367	0.595771366213	0
16	1376	0.595813366213	1
16	1390	0.595824618887	3
16	1401	0.595858618887	1
16	1448	0.689177300176	0
16	1457	0.689223300176	1
17	0	0	1
17	5	0.005671297573	0
17	14	0.005717297573	1
17	55	0.105671297573	0
17	64	0.105717297573	1
17	182	0.205671297573	0
17	191	0.205717297573	1
17	276	0.23127676172	3
17	283	0.23131476172	1
17	291	0.23146476172	0
17	300	0.23151076172	1
17	312	0.231521959174	3
17	320	0.231555959174	1
17	425	0.305671297573	0
17	434	0.305717297573	1
17	474	0.405671297573	0
17	483	0.405717297573	1
17	526	0.505671297573	0
17	535	0.505717297573	1
17	829	0.53127676172	3
17	836	0.53131876172	1
17	843	0.53132876172	0
17	853	0.53136276172	1
17	861	0.53189276172	0
17	870	0.53193476172	1
17	883	0.531945959174	3
17	891	0.531979959174	1
17	901	0.532369959174	3
17	908	0.532411959174	1
17	915	0.532421959174	0
17	925	0.532455959174	1
17	933	0.532885959174	0
17	942	0.532927959174	1
17	959	0.532939156628	3
17	967	0.532973156628	1
17	977	0.533603156628	3
17	984	0.533645156628	1
17	991	0.533655156628	0
17	1001	0.533689156628	1
17	1009	0.534119156628	0
17	1018	0.534161156628	1
17	1031	0.534172354082	3
17	1039	0.534206354082	1
17	1423	0.605671297573	0
17	1433	0.605717297573	1
17	1473	0.705671297573	0
17	1482	0.705717297573	1
18	0	0	31
19	0	0	31
20	0	0	31
21	0	0	31
22	0	0	31
23	0	0	31
24	2	0.005671297573	49
24	52	0.105671297573	49
24	179	0.205671297573	49
24	286	0.23131476172	49
24	422	0.305671297573	49
24	471	0.405671297573	49
24	523	0.505671297573	49
24	839	0.53131876172	34
24	911	0.532411959174	34
24	987	0.533645156628	36
24	1420	0.605671297573	49
24	1470	0.705671297573	49
25	2	0.005671297573	1
25	4	0.005671297573	0
25	52	0.105671297573	1
25	54	0.105671297573	0
25	179	0.205671297573	1
25	181	0.205671297573	0
25	286	0.23131476172	1
25	290	0.23146476172	0
25	422	0.305671297573	1
25	424	0.305671297573	0
25	471	0.405671297573	1
25	473	0.405671297573	0
25	523	0.505671297573	1
25	525	0.505671297573	0
25	839	0.53131876172	1
25	860	0.53189276172	0
25	911	0.532411959174	1
25	932	0.532885959174	0
25	987	0.533645156628	1
25	1008	0.534119156628	0
25	1420	0.605671297573	1
25	1422	0.605671297573	0
25	1470	0.705671297573	1
25	1472	0.705671297573	0
26	2	0.005671297573	24
26	52	0.105671297573	26
26	179	0.205671297573	23
26	286	0.23131476172	5
26	422	0.305671297573	9
26	471	0.405671297573	19
26	523	0.505671297573	19
26	839	0.53131876172	24
26	911	0.532411959174	19
26	987	0.533645156628	19
26	1420	0.605671297573	31
26	1470	0.705671297573	20
27	2	0.005671297573	1
27	3	0.005671297573	0
27	52	0.105671297573	1
27	53	0.105671297573	0
27	179	0.205671297573	1
27	180	0.205671297573	0
27	286	0.23131476172	1
27	289	0.23146476172	0
27	422	0.305671297573	1
27	423	0.305671297573	0
27	471	0.405671297573	1
27	472	0.405671297573	0
27	523	0.505671297573	1
27	524	0.505671297573	0
27	839	0.53131876172	1
27	843	0.53132876172	0
27	853	0.53136276172	1
27	859	0.53189276172	0
27	911	0.532411959174	1
27	915	0.532421959174	0
27	925	0.532455959174	1
27	931	0.532885959174	0
27	987	0.533645156628	1
27	991	0.533655156628	0
27	1001	0.533689156628	1
27	1007	0.534119156628	0
27	1420	0.605671297573	1
27	1421	0.605671297573	0
27	1470	0.705671297573	1
27	1471	0.705671297573	0
28	4	0.005671297573	49
28	54	0.105671297573	49
28	181	0.205671297573	49
28	290	0.23146476172	49
28	424	0.305671297573	49
28	473	0.405671297573	49
28	525	0.505671297573	49
28	860	0.53189276172	34
28	932	0.532885959174	34
28	1008	0.534119156628	36
28	1422	0.605671297573	49
28	1472	0.705671297573	49
29	4	0.005671297573	0
29	54	0.105671297573	0
29	181	0.205671297573	0
29	290	0.23146476172	0.00015
29	424	0.305671297573	0
29	473	0.405671297573	0
29	525	0.505671297573	0
29	860	0.53189276172	0.000574
29	932	0.532885959174	0.000474
29	1008	0.534119156628	0.000474
29	1422	0.605671297573	0
29	1472	0.705671297573	0
30	4	0.005671297573	1
30	12	0.005717297573	0
30	54	0.105671297573	1
30	62	0.105717297573	0
30	181	0.205671297573	1
30	189	0.205717297573	0
30	290	0.23146476172	1
30	321	0.231555959174	0
30	424	0.305671297573	1
30	432	0.305717297573	0
30	473	0.405671297573	1
30	481	0.405717297573	0
30	525	0.505671297573	1
30	533	0.505717297573	0
30	860	0.53189276172	1
30	892	0.531979959174	0
30	932	0.532885959174	1
30	968	0.532973156628	0
30	1008	0.534119156628	1
30	1040	0.534206354082	0
30	1422	0.605671297573	1
30	1431	0.605717297573	0
30	1472	0.705671297573	1
30	1480	0.705717297573	0
31	4	0.005671297573	24000000
31	54	0.105671297573	24000000
31	181	0.205671297573	24000000
31	290	0.23146476172	24000000
31	424	0.305671297573	24000000
31	473	0.405671297573	24000000
31	525	0.505671297573	24000000
31	837	0.53131876172	24000000
31	860	0.53189276172	24000000
31	909	0.532411959174	24000000
31	932	0.532885959174	24000000
31	985	0.533645156628	24000000
31	1008	0.534119156628	24000000
31	1422	0.605671297573	24000000
31	1472	0.705671297573	24000000
32	4	0.005671297573	49
32	54	0.105671297573	49
32	181	0.205671297573	49
32	290	0.23146476172	49
32	424	0.305671297573	49
32	473	0.405671297573	49
32	525	0.505671297573	49
32	842	0.53132876172	14
32	860	0.53189276172	34
32	914	0.532421959174	14
32	932	0.532885959174	34
32	990	0.533655156628	14
32	1008	0.534119156628	36
32	1422	0.605671297573	49
32	1472	0.705671297573	49
33	4	0.005671297573	1
33	12	0.005717297573	0
33	54	0.105671297573	1
33	62	0.105717297573	0
33	181	0.205671297573	1
33	189	0.205717297573	0
33	290	0.23146476172	1
33	321	0.231555959174	0
33	424	0.305671297573	1
33	432	0.305717297573	0
33	473	0.405671297573	1
33	481	0.405717297573	0
33	525	0.505671297573	1
33	533	0.505717297573	0
33	860	0.53189276172	1
33	892	0.531979959174	0
33	932	0.532885959174	1
33	968	0.532973156628	0
33	1008	0.534119156628	1
33	1040	0.534206354082	0
33	1422	0.605671297573	1
33	1431	0.605717297573	0
33	1472	0.705671297573	1
33	1480	0.705717297573	0
34	5	0.005671297573	1
34	6	0.005671297573	2
34	12	0.005717297573	1
34	14	0.005717297573	0
34	55	0.105671297573	1
34	56	0.105671297573	2
34	62	0.105717297573	1
34	64	0.105717297573	0
34	182	0.205671297573	1
34	183	0.205671297573	2
34	189	0.205717297573	1
34	191	0.205717297573	0
34	291	0.23146476172	1
34	292	0.23146476172	2
34	298	0.23151076172	1
34	300	0.23151076172	0
34	425	0.305671297573	1
34	426	0.305671297573	2
34	432	0.305717297573	1
34	434	0.305717297573	0
34	474	0.405671297573	1
34	475	0.405671297573	2
34	481	0.405717297573	1
34	483	0.405717297573	0
34	526	0.505671297573	1
34	527	0.505671297573	2
34	533	0.505717297573	1
34	535	0.505717297573	0
34	843	0.53132876172	1
34	844	0.53132876172	2
34	851	0.53136276172	1
34	853	0.53136276172	0
34	861	0.53189276172	1
34	862	0.53189276172	2
34	868	0.53193476172	1
34	870	0.53193476172	0
34	915	0.532421959174	1
34	916	0.532421959174	2
34	923	0.532455959174	1
34	925	0.532455959174	0
34	933	0.532885959174	1
34	934	0.532885959174	2
34	940	0.532927959174	1
34	942	0.532927959174	0
34	991	0.533655156628	1
34	992	0.533655156628	2
34	999	0.533689156628	1
34	1001	0.533689156628	0
34	1009	0.534119156628	1
34	1010	0.534119156628	2
34	1016	0.534161156628	1
34	1018	0.534161156628	0
34	1423	0.605671297573	1
34	1424	0.605671297573	2
34	1431	0.605717297573	1
34	1433	0.605717297573	0
34	1473	0.705671297573	1
34	1474	0.705671297573	2
34	1480	0.705717297573	1
34	1482	0.705717297573	0
35	12	0.005717297573	49
35	62	0.105717297573	49
35	189	0.205717297573	49
35	298	0.23151076172	49
35	432	0.305717297573	49
35	481	0.405717297573	49
35	533	0.505717297573	49
35	851	0.53136276172	14
35	868	0.53193476172	34
35	923	0.532455959174	14
35	940	0.532927959174	34
35	999	0.533689156628	14
35	1016	0.534161156628	36
35	1431	0.605717297573	49
35	1480	0.705717297573	49
36	12	0.005717297573	49
36	62	0.105717297573	49
36	189	0.205717297573	49
36	432	0.305717297573	49
36	481	0.405717297573	49
36	533	0.505717297573	49
36	1431	0.605717297573	49
36	1480	0.705717297573	49
37	12	0.005717297573	49
37	62	0.105717297573	49
37	189	0.205717297573	49
37	432	0.305717297573	49
37	481	0.405717297573	49
37	533	0.505717297573	49
37	1431	0.605717297573	49
37	1480	0.705717297573	49
38	12	0.005717297573	49
38	62	0.105717297573	49
38	189	0.205717297573	49
38	298	0.23151076172	49
38	432	0.305717297573	49
38	481	0.405717297573	49
38	533	0.505717297573	49
38	851	0.53136276172	14
38	868	0.53193476172	34
38	923	0.532455959174	14
38	940	0.532927959174	34
38	999	0.533689156628	14
38	1016	0.534161156628	36
38	1431	0.605717297573	49
38	1480	0.705717297573	49
39	12	0.005717297573	4.6e-05
39	62	0.105717297573	4.6e-05
39	189	0.205717297573	4.6e-05
39	321	0.231555959174	9.1197454e-05
39	432	0.305717297573	4.6e-05
39	481	0.405717297573	4.6e-05
39	533	0.505717297573	4.6e-05
39	892	0.531979959174	8.7197454e-05
39	968	0.532973156628	8.7197454e-05
39	1040	0.534206354082	8.7197454e-05
39	1431	0.605717297573	4.6e-05
39	1480	0.705717297573	4.6e-05
40	17	0.0057178963	49
40	67	0.1057178963	49
40	194	0.2057178963	49
40	303	0.231511360447	49
40	437	0.3057178963	49
40	486	0.4057178963	49
40	538	0.5057178963	49
40	856	0.531363360447	14
40	873	0.531935360447	34
40	928	0.532456557901	14
40	945	0.532928557901	34
40	1004	0.533689755355	14
40	1021	0.534161755355	36
40	1436	0.6057178963	49
40	1485	0.7057178963	49
41	17	0.0057178963	49
41	67	0.1057178963	49
41	194	0.2057178963	49
41	303	0.231511360447	49
41	437	0.3057178963	49
41	486	0.4057178963	49
41	538	0.5057178963	49
41	856	0.531363360447	14
41	873	0.531935360447	34
41	928	0.532456557901	14
41	945	0.532928557901	34
41	1004	0.533689755355	14
41	1021	0.534161755355	36
41	1436	0.6057178963	49
41	1485	0.7057178963	49
42	17	0.0057178963	49
42	67	0.1057178963	49
42	194	0.2057178963	49
42	437	0.3057178963	49
42	486	0.4057178963	49
42	538	0.5057178963	49
42	1436	0.6057178963	49
42	1485	0.7057178963	49
43	17	0.0057178963	49
43	67	0.1057178963	49
43	194	0.2057178963	49
43	437	0.3057178963	49
43	486	0.4057178963	49
43	538	0.5057178963	49
43	1436	0.6057178963	49
43	1485	0.7057178963	49
44	17	0.0057178963	49
44	67	0.1057178963	49
44	194	0.2057178963	49
44	303	0.231511360447	49
44	437	0.3057178963	49
44	486	0.4057178963	49
44	538	0.5057178963	49
44	856	0.531363360447	14
44	873	0.531935360447	34
44	928	0.532456557901	14
44	945	0.532928557901	34
44	1004	0.533689755355	14
44	1021	0.534161755355	36
44	1436	0.6057178963	49
44	1485	0.7057178963	49
45	23	0.089177300176	51
45	81	0.189177300176	51
45	122	0.18943249763	51
45	218	0.215353138804	51
45	328	0.289177300176	51
45	371	0.293806860865	51
45	446	0.389177300176	51
45	493	0.489177300176	51
45	565	0.515357138804	34
45	650	0.516530391478	34
45	738	0.517103644152	36
45	1056	0.589177300176	51
45	1097	0.58959249763	51
45	1168	0.593810860865	34
45	1252	0.594284113539	34
45	1340	0.595677366213	36
45	1445	0.689177300176	51
46	23	0.089177300176	1
46	25	0.089177300176	0
46	81	0.189177300176	1
46	83	0.189177300176	0
46	122	0.18943249763	1
46	130	0.18962249763	0
46	218	0.215353138804	1
46	225	0.215883138804	0
46	328	0.289177300176	1
46	330	0.289177300176	0
46	371	0.293806860865	1
46	377	0.294016860865	0
46	446	0.389177300176	1
46	448	0.389177300176	0
46	493	0.489177300176	1
46	495	0.489177300176	0
46	565	0.515357138804	1
46	592	0.516051138804	0
46	650	0.516530391478	1
46	676	0.516924391478	0
46	738	0.517103644152	1
46	764	0.517557644152	0
46	1056	0.589177300176	1
46	1058	0.589177300176	0
46	1097	0.58959249763	1
46	1105	0.58978249763	0
46	1168	0.593810860865	1
46	1194	0.593924860865	0
46	1252	0.594284113539	1
46	1278	0.594878113539	0
46	1340	0.595677366213	1
46	1366	0.595771366213	0
46	1445	0.689177300176	1
46	1447	0.689177300176	0
47	23	0.089177300176	12
47	81	0.189177300176	1
47	122	0.18943249763	7
47	218	0.215353138804	24
47	328	0.289177300176	25
47	371	0.293806860865	8
47	446	0.389177300176	20
47	493	0.489177300176	16
47	565	0.515357138804	30
47	650	0.516530391478	15
47	738	0.517103644152	18
47	1056	0.589177300176	19
47	1097	0.58959249763	7
47	1168	0.593810860865	1
47	1252	0.594284113539	25
47	1340	0.595677366213	0
47	1445	0.689177300176	10
48	23	0.089177300176	1
48	24	0.089177300176	0
48	81	0.189177300176	1
48	82	0.189177300176	0
48	122	0.18943249763	1
48	129	0.18962249763	0
48	218	0.215353138804	1
48	224	0.215883138804	0
48	328	0.289177300176	1
48	329	0.289177300176	0
48	371	0.293806860865	1
48	376	0.294016860865	0
48	446	0.389177300176	1
48	447	0.389177300176	0
48	493	0.489177300176	1
48	494	0.489177300176	0
48	565	0.515357138804	1
48	570	0.515367138804	0
48	581	0.515401138804	1
48	591	0.516051138804	0
48	650	0.516530391478	1
48	655	0.516540391478	0
48	666	0.516574391478	1
48	675	0.516924391478	0
48	738	0.517103644152	1
48	743	0.517113644152	0
48	754	0.517147644152	1
48	763	0.517557644152	0
48	1056	0.589177300176	1
48	1057	0.589177300176	0
48	1097	0.58959249763	1
48	1104	0.58978249763	0
48	1168	0.593810860865	1
48	1173	0.593820860865	0
48	1184	0.593854860865	1
48	1193	0.593924860865	0
48	1252	0.594284113539	1
48	1257	0.594294113539	0
48	1268	0.594328113539	1
48	1277	0.594878113539	0
48	1340	0.595677366213	1
48	1345	0.595687366213	0
48	1356	0.595721366213	1
48	1365	0.595771366213	0
48	1445	0.689177300176	1
48	1446	0.689177300176	0
49	25	0.089177300176	51
49	83	0.189177300176	51
49	130	0.18962249763	51
49	225	0.215883138804	51
49	330	0.289177300176	51
49	377	0.294016860865	51
49	448	0.389177300176	51
49	495	0.489177300176	51
49	592	0.516051138804	34
49	676	0.516924391478	34
49	764	0.517557644152	36
49	1058	0.589177300176	51
49	1105	0.58978249763	51
49	1194	0.593924860865	34
49	1278	0.594878113539	34
49	1366	0.595771366213	36
49	1447	0.689177300176	51
50	25	0.089177300176	0
50	83	0.189177300176	0
50	130	0.18962249763	0.00019
50	225	0.215883138804	0.00053
50	330	0.289177300176	0
50	377	0.294016860865	0.00021
50	448	0.389177300176	0
50	495	0.489177300176	0
50	592	0.516051138804	0.000694
50	676	0.516924391478	0.000394
50	764	0.517557644152	0.000454
50	1058	0.589177300176	0
50	1105	0.58978249763	0.00019
50	1194	0.593924860865	0.000114
50	1278	0.594878113539	0.000594
50	1366	0.595771366213	9.4e-05
50	1447	0.689177300176	0
51	25	0.089177300176	1
51	33	0.089223300176	0
51	83	0.189177300176	1
51	91	0.189223300176	0
51	130	0.18962249763	1
51	165	0.189713695084	0
51	225	0.215883138804	1
51	261	0.215974391478	0
51	330	0.289177300176	1
51	338	0.289223300176	0
51	377	0.294016860865	1
51	413	0.294108113539	0
51	448	0.389177300176	1
51	456	0.389223300176	0
51	495	0.489177300176	1
51	503	0.489223300176	0
51	592	0.516051138804	1
51	629	0.516138391478	0
51	676	0.516924391478	1
51	717	0.517011644152	0
51	764	0.517557644152	1
51	801	0.517644896826	0
51	1058	0.589177300176	1
51	1066	0.589223300176	0
51	1105	0.58978249763	1
51	1140	0.589873695084	0
51	1194	0.593924860865	1
51	1231	0.594012113539	0
51	1278	0.594878113539	1
51	1319	0.594965366213	0
51	1366	0.595771366213	1
51	1403	0.595858618887	0
51	1447	0.689177300176	1
51	1455	0.689223300176	0
52	25	0.089177300176	24000000
52	83	0.189177300176	24000000
52	130	0.18962249763	24000000
52	225	0.215883138804	24000000
52	330	0.289177300176	24000000
52	377	0.294016860865	24000000
52	448	0.389177300176	24000000
52	495	0.489177300176	24000000
52	563	0.515357138804	24000000
52	592	0.516051138804	24000000
52	648	0.516530391478	24000000
52	676	0.516924391478	24000000
52	736	0.517103644152	24000000
52	764	0.517557644152	24000000
52	1058	0.589177300176	24000000
52	1105	0.58978249763	24000000
52	1166	0.593810860865	24000000
52	1194	0.593924860865	24000000
52	1250	0.594284113539	24000000
52	1278	0.594878113539	24000000
52	1338	0.595677366213	24000000
52	1366	0.595771366213	24000000
52	1447	0.689177300176	24000000
53	25	0.089177300176	51
53	83	0.189177300176	51
53	130	0.18962249763	51
53	225	0.215883138804	51
53	330	0.289177300176	51
53	377	0.294016860865	51
53	448	0.389177300176	51
53	495	0.489177300176	51
53	569	0.515367138804	14
53	592	0.516051138804	34
53	654	0.516540391478	14
53	676	0.516924391478	34
53	742	0.517113644152	14
53	764	0.517557644152	36
53	1058	0.589177300176	51
53	1105	0.58978249763	51
53	1172	0.593820860865	14
53	1194	0.593924860865	34
53	1256	0.594294113539	14
53	1278	0.594878113539	34
53	1344	0.595687366213	14
53	1366	0.595771366213	36
53	1447	0.689177300176	51
54	25	0.089177300176	1
54	33	0.089223300176	0
54	83	0.189177300176	1
54	91	0.189223300176	0
54	130	0.18962249763	1
54	165	0.189713695084	0
54	225	0.215883138804	1
54	261	0.215974391478	0
54	330	0.289177300176	1
54	338	0.289223300176	0
54	377	0.294016860865	1
54	413	0.294108113539	0
54	448	0.389177300176	1
54	456	0.389223300176	0
54	495	0.489177300176	1
54	503	0.489223300176	0
54	592	0.516051138804	1
54	629	0.516138391478	0
54	676	0.516924391478	1
54	717	0.517011644152	0
54	764	0.517557644152	1
54	801	0.517644896826	0
54	1058	0.589177300176	1
54	1066	0.589223300176	0
54	1105	0.58978249763	1
54	1140	0.589873695084	0
54	1194	0.593924860865	1
54	1231	0.594012113539	0
54	1278	0.594878113539	1
54	1319	0.594965366213	0
54	1366	0.595771366213	1
54	1403	0.595858618887	0
54	1447	0.689177300176	1
54	1455	0.689223300176	0
55	26	0.089177300176	1
55	27	0.089177300176	2
55	33	0.089223300176	1
55	35	0.089223300176	0
55	84	0.189177300176	1
55	85	0.189177300176	2
55	91	0.189223300176	1
55	93	0.189223300176	0
55	131	0.18962249763	1
55	132	0.18962249763	2
55	138	0.18966849763	1
55	140	0.18966849763	0
55	226	0.215883138804	1
55	227	0.215883138804	2
55	233	0.215929138804	1
55	235	0.215929138804	0
55	331	0.289177300176	1
55	332	0.289177300176	2
55	338	0.289223300176	1
55	340	0.289223300176	0
55	378	0.294016860865	1
55	379	0.294016860865	2
55	385	0.294062860865	1
55	387	0.294062860865	0
55	449	0.389177300176	1
55	450	0.389177300176	2
55	456	0.389223300176	1
55	458	0.389223300176	0
55	496	0.489177300176	1
55	497	0.489177300176	2
55	503	0.489223300176	1
55	505	0.489223300176	0
55	570	0.515367138804	1
55	571	0.515367138804	2
55	579	0.515401138804	1
55	581	0.515401138804	0
55	593	0.516051138804	1
55	594	0.516051138804	2
55	600	0.516093138804	1
55	602	0.516093138804	0
55	655	0.516540391478	1
55	656	0.516540391478	2
55	664	0.516574391478	1
55	666	0.516574391478	0
55	677	0.516924391478	1
55	678	0.516924391478	2
55	684	0.516966391478	1
55	686	0.516966391478	0
55	743	0.517113644152	1
55	744	0.517113644152	2
55	752	0.517147644152	1
55	754	0.517147644152	0
55	765	0.517557644152	1
55	766	0.517557644152	2
55	772	0.517599644152	1
55	774	0.517599644152	0
55	1059	0.589177300176	1
55	1060	0.589177300176	2
55	1066	0.589223300176	1
55	1068	0.589223300176	0
55	1106	0.58978249763	1
55	1107	0.58978249763	2
55	1113	0.58982849763	1
55	1115	0.58982849763	0
55	1173	0.593820860865	1
55	1174	0.593820860865	2
55	1182	0.593854860865	1
55	1184	0.593854860865	0
55	1195	0.593924860865	1
55	1196	0.593924860865	2
55	1202	0.593966860865	1
55	1204	0.593966860865	0
55	1257	0.594294113539	1
55	1258	0.594294113539	2
55	1266	0.594328113539	1
55	1268	0.594328113539	0
55	1279	0.594878113539	1
55	1280	0.594878113539	2
55	1286	0.594920113539	1
55	1288	0.594920113539	0
55	1345	0.595687366213	1
55	1346	0.595687366213	2
55	1354	0.595721366213	1
55	1356	0.595721366213	0
55	1367	0.595771366213	1
55	1368	0.595771366213	2
55	1374	0.595813366213	1
55	1376	0.595813366213	0
55	1448	0.689177300176	1
55	1449	0.689177300176	2
55	1455	0.689223300176	1
55	1457	0.689223300176	0
56	33	0.089223300176	51
56	91	0.189223300176	51
56	138	0.18966849763	51
56	233	0.215929138804	51
56	338	0.289223300176	51
56	385	0.294062860865	51
56	456	0.389223300176	51
56	503	0.489223300176	51
56	579	0.515401138804	14
56	600	0.516093138804	34
56	664	0.516574391478	14
56	684	0.516966391478	34
56	752	0.517147644152	14
56	772	0.517599644152	36
56	1066	0.589223300176	51
56	1113	0.58982849763	51
56	1182	0.593854860865	14
56	1202	0.593966860865	34
56	1266	0.594328113539	14
56	1286	0.594920113539	34
56	1354	0.595721366213	14
56	1374	0.595813366213	36
56	1455	0.689223300176	51
57	33	0.089223300176	51
57	91	0.189223300176	51
57	338	0.289223300176	51
57	456	0.389223300176	51
57	503	0.489223300176	51
57	1066	0.589223300176	51
57	1455	0.689223300176	51
58	33	0.089223300176	51
58	91	0.189223300176	51
58	338	0.289223300176	51
58	456	0.389223300176	51
58	503	0.489223300176	51
58	1066	0.589223300176	51
58	1455	0.689223300176	51
59	33	0.089223300176	51
59	91	0.189223300176	51
59	138	0.18966849763	51
59	233	0.215929138804	51
59	338	0.289223300176	51
59	385	0.294062860865	51
59	456	0.389223300176	51
59	503	0.489223300176	51
59	579	0.515401138804	14
59	600	0.516093138804	34
59	664	0.516574391478	14
59	684	0.516966391478	34
59	752	0.517147644152	14
59	772	0.517599644152	36
59	1066	0.589223300176	51
59	1113	0.58982849763	51
59	1182	0.593854860865	14
59	1202	0.593966860865	34
59	1266	0.594328113539	14
59	1286	0.594920113539	34
59	1354	0.595721366213	14
59	1374	0.595813366213	36
59	1455	0.689223300176	51
60	33	0.089223300176	4.6e-05
60	91	0.189223300176	4.6e-05
60	165	0.189713695084	9.1197454e-05
60	261	0.215974391478	9.1252674e-05
60	338	0.289223300176	4.6e-05
60	413	0.294108113539	9.1252674e-05
60	456	0.389223300176	4.6e-05
60	503	0.489223300176	4.6e-05
60	629	0.516138391478	8.7252674e-05
60	717	0.517011644152	8.7252674e-05
60	801	0.517644896826	8.7252674e-05
60	1066	0.589223300176	4.6e-05
60	1140	0.589873695084	9.1197454e-05
60	1231	0.594012113539	8.7252674e-05
60	1319	0.594965366213	8.7252674e-05
60	1403	0.595858618887	8.7252674e-05
60	1455	0.689223300176	4.6e-05
61	38	0.089223898903	51
61	96	0.189223898903	51
61	143	0.189669096357	51
61	221	0.215353526502	32
61	238	0.215929737531	51
61	264	0.215974779176	14
61	343	0.289223898903	51
61	374	0.293807248563	32
61	390	0.294063459592	51
61	416	0.294108501237	14
61	461	0.389223898903	51
61	508	0.489223898903	51
61	568	0.515357526502	34
61	585	0.515401737531	14
61	605	0.516093737531	34
61	632	0.516138779176	14
61	653	0.516530779176	34
61	670	0.516574990205	14
61	689	0.516966990205	34
61	720	0.51701203185	14
61	741	0.51710403185	36
61	758	0.517148242879	14
61	777	0.517600242879	36
61	804	0.517645284524	14
61	1071	0.589223898903	51
61	1118	0.589829096357	51
61	1171	0.593811248563	34
61	1188	0.593855459592	14
61	1207	0.593967459592	34
61	1234	0.594012501237	14
61	1255	0.594284501237	34
61	1272	0.594328712266	14
61	1291	0.594920712266	34
61	1322	0.594965753911	14
61	1343	0.595677753911	36
61	1360	0.59572196494	14
61	1379	0.59581396494	36
61	1406	0.595859006585	14
61	1460	0.689223898903	51
62	38	0.089223898903	51
62	96	0.189223898903	51
62	143	0.189669096357	51
62	221	0.215353526502	32
62	343	0.289223898903	51
62	374	0.293807248563	32
62	461	0.389223898903	51
62	508	0.489223898903	51
62	1071	0.589223898903	51
62	1118	0.589829096357	51
62	1460	0.689223898903	51
63	38	0.089223898903	51
63	96	0.189223898903	51
63	221	0.215353526502	32
63	343	0.289223898903	51
63	374	0.293807248563	32
63	461	0.389223898903	51
63	508	0.489223898903	51
63	1071	0.589223898903	51
63	1460	0.689223898903	51
64	38	0.089223898903	51
64	96	0.189223898903	51
64	221	0.215353526502	32
64	343	0.289223898903	51
64	374	0.293807248563	32
64	461	0.389223898903	51
64	508	0.489223898903	51
64	1071	0.589223898903	51
64	1460	0.689223898903	51
65	38	0.089223898903	51
65	96	0.189223898903	51
65	143	0.189669096357	51
65	221	0.215353526502	32
65	343	0.289223898903	51
65	374	0.293807248563	32
65	461	0.389223898903	51
65	508	0.489223898903	51
65	1071	0.589223898903	51
65	1118	0.589829096357	51
65	1460	0.689223898903	51
66	42	0.089223926513	51
66	100	0.189223926513	51
66	125	0.189432912938	32
66	147	0.189669123967	51
66	168	0.189714110392	14
66	212	0.215352512467	32
66	241	0.215929765141	51
66	258	0.215973765141	14
66	347	0.289223926513	51
66	393	0.294063487202	51
66	465	0.389223926513	51
66	512	0.489223926513	51
66	560	0.515356512467	34
66	588	0.515401765141	14
66	608	0.516093765141	34
66	626	0.516137765141	14
66	645	0.516529765141	34
66	673	0.516575017815	14
66	692	0.516967017815	34
66	714	0.517011017815	14
66	733	0.517103017815	36
66	761	0.517148270489	14
66	780	0.517600270489	36
66	798	0.517644270489	14
66	1075	0.589223926513	51
66	1100	0.589592912938	32
66	1122	0.589829123967	51
66	1143	0.589874110392	14
66	1191	0.593855487202	14
66	1210	0.593967487202	34
66	1275	0.594328739876	14
66	1294	0.594920739876	34
66	1363	0.59572199255	14
66	1382	0.59581399255	36
66	1464	0.689223926513	51
67	42	0.089223926513	51
67	100	0.189223926513	51
67	125	0.189432912938	32
67	212	0.215352512467	32
67	347	0.289223926513	51
67	393	0.294063487202	51
67	465	0.389223926513	51
67	512	0.489223926513	51
67	1075	0.589223926513	51
67	1100	0.589592912938	32
67	1191	0.593855487202	14
67	1210	0.593967487202	34
67	1275	0.594328739876	14
67	1294	0.594920739876	34
67	1363	0.59572199255	14
67	1382	0.59581399255	36
67	1464	0.689223926513	51
68	42	0.089223926513	51
68	100	0.189223926513	51
68	125	0.189432912938	32
68	212	0.215352512467	32
68	347	0.289223926513	51
68	465	0.389223926513	51
68	512	0.489223926513	51
68	1075	0.589223926513	51
68	1100	0.589592912938	32
68	1464	0.689223926513	51
69	42	0.089223926513	51
69	100	0.189223926513	51
69	125	0.189432912938	32
69	212	0.215352512467	32
69	347	0.289223926513	51
69	465	0.389223926513	51
69	512	0.489223926513	51
69	1075	0.589223926513	51
69	1100	0.589592912938	32
69	1464	0.689223926513	51
70	42	0.089223926513	51
70	100	0.189223926513	51
70	125	0.189432912938	32
70	212	0.215352512467	32
70	347	0.289223926513	51
70	393	0.294063487202	51
70	465	0.389223926513	51
70	512	0.489223926513	51
70	1075	0.589223926513	51
70	1100	0.589592912938	32
70	1191	0.593855487202	14
70	1210	0.593967487202	34
70	1275	0.594328739876	14
70	1294	0.594920739876	34
70	1363	0.59572199255	14
70	1382	0.59581399255	36
70	1464	0.689223926513	51
71	43	0.089223926513	51
71	101	0.189223926513	51
71	126	0.189432912938	32
71	148	0.189669123967	51
71	169	0.189714110392	14
71	242	0.215929765141	51
71	348	0.289223926513	51
71	365	0.293806234528	32
71	394	0.294063487202	51
71	410	0.294107487202	14
71	466	0.389223926513	51
71	513	0.489223926513	51
71	589	0.515401765141	14
71	609	0.516093765141	34
71	674	0.516575017815	14
71	693	0.516967017815	34
71	762	0.517148270489	14
[...]
125	762	0.517148270489	0
126	202	0.215314512467	1
126	203	0.215314512467	2
126	209	0.215352512467	1
126	211	0.215352512467	0
126	245	0.215939765141	1
126	246	0.215939765141	2
126	255	0.215973765141	1
126	257	0.215973765141	0
126	550	0.515314512467	1
126	551	0.515314512467	2
126	557	0.515356512467	1
126	559	0.515356512467	0
126	613	0.516103765141	1
126	614	0.516103765141	2
126	623	0.516137765141	1
126	625	0.516137765141	0
126	635	0.516487765141	1
126	636	0.516487765141	2
126	642	0.516529765141	1
126	644	0.516529765141	0
126	701	0.516977017815	1
126	702	0.516977017815	2
126	711	0.517011017815	1
126	713	0.517011017815	0
126	723	0.517061017815	1
126	724	0.517061017815	2
126	730	0.517103017815	1
126	732	0.517103017815	0
126	785	0.517610270489	1
126	786	0.517610270489	2
126	795	0.517644270489	1
126	797	0.517644270489	0
127	209	0.215352512467	32
127	255	0.215973765141	14
127	557	0.515356512467	34
127	623	0.516137765141	14
127	642	0.516529765141	34
127	711	0.517011017815	14
127	730	0.517103017815	36
127	795	0.517644270489	14
128	209	0.215352512467	32
129	209	0.215352512467	32
130	209	0.215352512467	32
130	255	0.215973765141	14
130	557	0.515356512467	34
130	623	0.516137765141	14
130	642	0.516529765141	34
130	711	0.517011017815	14
130	730	0.517103017815	36
130	795	0.517644270489	14
131	209	0.215352512467	3.8e-05
131	589	0.515401765141	8.7252674e-05
131	674	0.516575017815	8.7252674e-05
131	762	0.517148270489	8.7252674e-05
132	238	0.215929737531	0
132	238	0.215929737531	4.4e-05
132	253	0.215973737531	0
132	390	0.294063459592	0
132	390	0.294063459592	4.4e-05
132	405	0.294107459592	0
132	568	0.515357526502	0
132	568	0.515357526502	4.4e-05
132	582	0.515401526502	0
132	605	0.516093737531	0
132	605	0.516093737531	4.4e-05
132	621	0.516137737531	0
132	653	0.516530779176	0
132	653	0.516530779176	4.4e-05
132	667	0.516574779176	0
132	689	0.516966990205	0
132	689	0.516966990205	4.4e-05
132	709	0.517010990205	0
132	741	0.51710403185	0
132	741	0.51710403185	4.4e-05
132	755	0.51714803185	0
132	777	0.517600242879	0
132	777	0.517600242879	4.4e-05
132	793	0.517644242879	0
132	1171	0.593811248563	0
132	1171	0.593811248563	4.4e-05
132	1185	0.593855248563	0
132	1207	0.593967459592	0
132	1207	0.593967459592	4.4e-05
132	1223	0.594011459592	0
132	1255	0.594284501237	0
132	1255	0.594284501237	4.4e-05
132	1269	0.594328501237	0
132	1291	0.594920712266	0
132	1291	0.594920712266	4.4e-05
132	1311	0.594964712266	0
132	1343	0.595677753911	0
132	1343	0.595677753911	4.4e-05
132	1357	0.595721753911	0
132	1379	0.59581396494	0
132	1379	0.59581396494	4.4e-05
132	1395	0.59585796494	0
133	238	0.215929737531	51
133	264	0.215974779176	14
133	390	0.294063459592	51
133	416	0.294108501237	14
133	568	0.515357526502	34
133	585	0.515401737531	14
133	605	0.516093737531	34
133	632	0.516138779176	14
133	653	0.516530779176	34
133	670	0.516574990205	14
133	689	0.516966990205	34
133	720	0.51701203185	14
133	741	0.51710403185	36
133	758	0.517148242879	14
133	777	0.517600242879	36
133	804	0.517645284524	14
133	1171	0.593811248563	34
133	1188	0.593855459592	14
133	1207	0.593967459592	34
133	1234	0.594012501237	14
133	1255	0.594284501237	34
133	1272	0.594328712266	14
133	1291	0.594920712266	34
133	1322	0.594965753911	14
133	1343	0.595677753911	36
133	1360	0.59572196494	14
133	1379	0.59581396494	36
133	1406	0.595859006585	14
134	238	0.215929737531	51
134	264	0.215974779176	14
134	390	0.294063459592	51
134	416	0.294108501237	14
134	568	0.515357526502	34
134	585	0.515401737531	14
134	605	0.516093737531	34
134	632	0.516138779176	14
134	653	0.516530779176	34
134	670	0.516574990205	14
134	689	0.516966990205	34
134	720	0.51701203185	14
134	741	0.51710403185	36
134	758	0.517148242879	14
134	777	0.517600242879	36
134	804	0.517645284524	14
134	1171	0.593811248563	34
134	1188	0.593855459592	14
134	1207	0.593967459592	34
134	1234	0.594012501237	14
134	1255	0.594284501237	34
134	1272	0.594328712266	14
134	1291	0.594920712266	34
134	1322	0.594965753911	14
134	1343	0.595677753911	36
134	1360	0.59572196494	14
134	1379	0.59581396494	36
134	1406	0.595859006585	14
135	238	0.215929737531	51
135	264	0.215974779176	14
135	390	0.294063459592	51
135	416	0.294108501237	14
135	568	0.515357526502	34
135	585	0.515401737531	14
135	605	0.516093737531	34
135	632	0.516138779176	14
135	653	0.516530779176	34
135	670	0.516574990205	14
135	689	0.516966990205	34
135	720	0.51701203185	14
135	741	0.51710403185	36
135	758	0.517148242879	14
135	777	0.517600242879	36
135	804	0.517645284524	14
135	1171	0.593811248563	34
135	1188	0.593855459592	14
135	1207	0.593967459592	34
135	1234	0.594012501237	14
135	1255	0.594284501237	34
135	1272	0.594328712266	14
135	1291	0.594920712266	34
135	1322	0.594965753911	14
135	1343	0.595677753911	36
135	1360	0.59572196494	14
135	1379	0.59581396494	36
135	1406	0.595859006585	14
136	238	0.215929737531	51
136	264	0.215974779176	14
136	390	0.294063459592	51
136	416	0.294108501237	14
136	568	0.515357526502	34
136	585	0.515401737531	14
136	605	0.516093737531	34
136	632	0.516138779176	14
136	653	0.516530779176	34
136	670	0.516574990205	14
136	689	0.516966990205	34
136	720	0.51701203185	14
136	741	0.51710403185	36
136	758	0.517148242879	14
136	777	0.517600242879	36
136	804	0.517645284524	14
136	1171	0.593811248563	34
136	1188	0.593855459592	14
136	1207	0.593967459592	34
136	1234	0.594012501237	14
136	1255	0.594284501237	34
136	1272	0.594328712266	14
136	1291	0.594920712266	34
136	1322	0.594965753911	14
136	1343	0.595677753911	36
136	1360	0.59572196494	14
136	1379	0.59581396494	36
136	1406	0.595859006585	14
137	242	0.215929765141	51
137	589	0.515401765141	14
137	609	0.516093765141	34
137	674	0.516575017815	14
137	693	0.516967017815	34
137	762	0.517148270489	14
137	781	0.517600270489	36
138	255	0.215973765141	14
138	557	0.515356512467	34
138	623	0.516137765141	14
138	642	0.516529765141	34
138	711	0.517011017815	14
138	730	0.517103017815	36
138	795	0.517644270489	14
139	269	0.231276162993	32
139	821	0.531276162993	34
139	875	0.531935360447	34
139	950	0.532928557901	36
140	269	0.231276162993	1
140	271	0.231276162993	0
140	821	0.531276162993	1
140	824	0.531276162993	0
140	875	0.531935360447	1
140	896	0.532369360447	0
140	950	0.532928557901	1
140	972	0.533602557901	0
141	269	0.231276162993	17
141	821	0.531276162993	3
141	875	0.531935360447	17
141	950	0.532928557901	29
142	269	0.231276162993	1
142	270	0.231276162993	0
142	821	0.531276162993	1
142	823	0.531276162993	0
142	875	0.531935360447	1
142	879	0.531945360447	0
142	889	0.531979360447	1
142	895	0.532369360447	0
142	950	0.532928557901	1
142	955	0.532938557901	0
142	965	0.532972557901	1
142	971	0.533602557901	0
143	271	0.231276162993	32
143	824	0.531276162993	34
143	896	0.532369360447	34
143	972	0.533602557901	36
144	271	0.231276162993	0
144	824	0.531276162993	0
144	896	0.532369360447	0.000434
144	972	0.533602557901	0.000674
145	271	0.231276162993	1
145	279	0.231314162993	0
145	824	0.531276162993	1
145	856	0.531363360447	0
145	896	0.532369360447	1
145	928	0.532456557901	0
145	972	0.533602557901	1
145	1004	0.533689755355	0
146	271	0.231276162993	24000000
146	303	0.231511360447	24000000
146	824	0.531276162993	24000000
146	873	0.531935360447	24000000
146	896	0.532369360447	24000000
146	945	0.532928557901	24000000
146	972	0.533602557901	24000000
146	1021	0.534161755355	24000000
147	271	0.231276162993	32
147	307	0.231521360447	14
147	824	0.531276162993	34
147	878	0.531945360447	14
147	896	0.532369360447	34
147	954	0.532938557901	14
147	972	0.533602557901	36
147	1026	0.534171755355	14
148	271	0.231276162993	1
148	279	0.231314162993	0
148	824	0.531276162993	1
148	856	0.531363360447	0
148	896	0.532369360447	1
148	928	0.532456557901	0
148	972	0.533602557901	1
148	1004	0.533689755355	0
149	272	0.231276162993	1
149	273	0.231276162993	2
149	279	0.231314162993	1
149	281	0.231314162993	0
149	308	0.231521360447	1
149	309	0.231521360447	2
149	316	0.231555360447	1
149	318	0.231555360447	0
149	825	0.531276162993	1
149	826	0.531276162993	2
149	832	0.531318162993	1
149	834	0.531318162993	0
149	879	0.531945360447	1
149	880	0.531945360447	2
149	887	0.531979360447	1
149	889	0.531979360447	0
149	897	0.532369360447	1
149	898	0.532369360447	2
149	904	0.532411360447	1
149	906	0.532411360447	0
149	955	0.532938557901	1
149	956	0.532938557901	2
149	963	0.532972557901	1
149	965	0.532972557901	0
149	973	0.533602557901	1
149	974	0.533602557901	2
149	980	0.533644557901	1
149	982	0.533644557901	0
149	1027	0.534171755355	1
149	1028	0.534171755355	2
149	1035	0.534205755355	1
149	1037	0.534205755355	0
150	279	0.231314162993	32
150	316	0.231555360447	14
150	832	0.531318162993	34
150	887	0.531979360447	14
150	904	0.532411360447	34
150	963	0.532972557901	14
150	980	0.533644557901	36
150	1035	0.534205755355	14
151	279	0.231314162993	32
152	279	0.231314162993	32
153	279	0.231314162993	32
153	316	0.231555360447	14
153	832	0.531318162993	34
153	887	0.531979360447	14
153	904	0.532411360447	34
153	963	0.532972557901	14
153	980	0.533644557901	36
153	1035	0.534205755355	14
154	279	0.231314162993	3.8e-05
154	856	0.531363360447	8.7197454e-05
154	928	0.532456557901	8.7197454e-05
154	1004	0.533689755355	8.7197454e-05
155	284	0.23131476172	32
155	321	0.231555959174	14
155	837	0.53131876172	34
155	892	0.531979959174	14
155	909	0.532411959174	34
155	968	0.532973156628	14
155	985	0.533645156628	36
155	1040	0.534206354082	14
156	284	0.23131476172	32
156	321	0.231555959174	14
156	837	0.53131876172	34
156	892	0.531979959174	14
156	909	0.532411959174	34
156	968	0.532973156628	14
156	985	0.533645156628	36
156	1040	0.534206354082	14
157	284	0.23131476172	32
158	284	0.23131476172	32
159	284	0.23131476172	32
159	321	0.231555959174	14
159	837	0.53131876172	34
159	892	0.531979959174	14
159	909	0.532411959174	34
159	968	0.532973156628	14
159	985	0.533645156628	36
159	1040	0.534206354082	14
160	298	0.23151076172	49
160	851	0.53136276172	14
160	868	0.53193476172	34
160	923	0.532455959174	14
160	940	0.532927959174	34
160	999	0.533689156628	14
160	1016	0.534161156628	36
161	298	0.23151076172	0
161	298	0.23151076172	4.4e-05
161	315	0.23155476172	0
161	868	0.53193476172	0
161	868	0.53193476172	4.4e-05
161	886	0.53197876172	0
161	940	0.532927959174	0
161	940	0.532927959174	4.4e-05
161	962	0.532971959174	0
161	1016	0.534161156628	0
161	1016	0.534161156628	4.4e-05
161	1034	0.534205156628	0
162	303	0.231511360447	49
162	856	0.531363360447	14
162	873	0.531935360447	34
162	928	0.532456557901	14
162	945	0.532928557901	34
162	1004	0.533689755355	14
162	1021	0.534161755355	36
163	316	0.231555360447	14
163	832	0.531318162993	34
163	887	0.531979360447	14
163	904	0.532411360447	34
163	963	0.532972557901	14
163	980	0.533644557901	36
163	1035	0.534205755355	14
164	321	0.231555959174	14
164	837	0.53131876172	34
164	892	0.531979959174	14
164	909	0.532411959174	34
164	968	0.532973156628	14
164	985	0.533645156628	36
164	1040	0.534206354082	14
165	352	0.293768234528	32
165	1149	0.593768234528	34
165	1213	0.593967487202	34
165	1300	0.594920739876	36
166	352	0.293768234528	1
166	354	0.293768234528	0
166	1149	0.593768234528	1
166	1152	0.593768234528	0
166	1213	0.593967487202	1
166	1236	0.594241487202	0
166	1300	0.594920739876	1
166	1324	0.595634739876	0
167	352	0.293768234528	13
167	1149	0.593768234528	0
167	1213	0.593967487202	9
167	1300	0.594920739876	31
168	352	0.293768234528	1
168	353	0.293768234528	0
168	1149	0.593768234528	1
168	1151	0.593768234528	0
168	1213	0.593967487202	1
168	1215	0.593977487202	0
168	1227	0.594011487202	1
168	1235	0.594241487202	0
168	1300	0.594920739876	1
168	1303	0.594930739876	0
168	1315	0.594964739876	1
168	1323	0.595634739876	0
169	354	0.293768234528	32
169	1152	0.593768234528	34
169	1236	0.594241487202	34
169	1324	0.595634739876	36
170	354	0.293768234528	0
170	1152	0.593768234528	0
170	1236	0.594241487202	0.000274
170	1324	0.595634739876	0.000714
171	354	0.293768234528	1
171	362	0.293806234528	0
171	1152	0.593768234528	1
171	1191	0.593855487202	0
171	1236	0.594241487202	1
171	1275	0.594328739876	0
171	1324	0.595634739876	1
171	1363	0.59572199255	0
172	354	0.293768234528	24000000
172	393	0.294063487202	24000000
172	1152	0.593768234528	24000000
172	1210	0.593967487202	24000000
172	1236	0.594241487202	24000000
172	1294	0.594920739876	24000000
172	1324	0.595634739876	24000000
172	1382	0.59581399255	24000000
173	354	0.293768234528	32
173	396	0.294073487202	14
173	1152	0.593768234528	34
173	1214	0.593977487202	14
173	1236	0.594241487202	34
173	1302	0.594930739876	14
173	1324	0.595634739876	36
173	1386	0.59582399255	14
174	354	0.293768234528	1
174	362	0.293806234528	0
174	1152	0.593768234528	1
174	1191	0.593855487202	0
174	1236	0.594241487202	1
174	1275	0.594328739876	0
174	1324	0.595634739876	1
174	1363	0.59572199255	0
175	355	0.293768234528	1
175	356	0.293768234528	2
175	362	0.293806234528	1
175	364	0.293806234528	0
175	397	0.294073487202	1
175	398	0.294073487202	2
175	407	0.294107487202	1
175	409	0.294107487202	0
175	1153	0.593768234528	1
175	1154	0.593768234528	2
175	1160	0.593810234528	1
175	1162	0.593810234528	0
175	1215	0.593977487202	1
175	1216	0.593977487202	2
175	1225	0.594011487202	1
175	1227	0.594011487202	0
175	1237	0.594241487202	1
175	1238	0.594241487202	2
175	1244	0.594283487202	1
175	1246	0.594283487202	0
175	1303	0.594930739876	1
175	1304	0.594930739876	2
175	1313	0.594964739876	1
175	1315	0.594964739876	0
175	1325	0.595634739876	1
175	1326	0.595634739876	2
175	1332	0.595676739876	1
175	1334	0.595676739876	0
175	1387	0.59582399255	1
175	1388	0.59582399255	2
175	1397	0.59585799255	1
175	1399	0.59585799255	0
176	362	0.293806234528	32
176	407	0.294107487202	14
176	1160	0.593810234528	34
176	1225	0.594011487202	14
176	1244	0.594283487202	34
176	1313	0.594964739876	14
176	1332	0.595676739876	36
176	1397	0.59585799255	14
177	362	0.293806234528	32
178	362	0.293806234528	32
179	362	0.293806234528	32
179	407	0.294107487202	14
179	1160	0.593810234528	34
179	1225	0.594011487202	14
179	1244	0.594283487202	34
179	1313	0.594964739876	14
179	1332	0.595676739876	36
179	1397	0.59585799255	14
180	362	0.293806234528	3.8e-05
180	1191	0.593855487202	8.7252674e-05
180	1275	0.594328739876	8.7252674e-05
180	1363	0.59572199255	8.7252674e-05
181	393	0.294063487202	51
181	1191	0.593855487202	14
181	1210	0.593967487202	34
181	1275	0.594328739876	14
181	1294	0.594920739876	34
181	1363	0.59572199255	14
181	1382	0.59581399255	36
182	407	0.294107487202	14
182	1160	0.593810234528	34
182	1225	0.594011487202	14
182	1244	0.594283487202	34
182	1313	0.594964739876	14
182	1332	0.595676739876	36
182	1397	0.59585799255	14
183	517	0.489260381577	1
184	543	0.515314512467	1
184	695	0.516967017815	2
184	783	0.517600270489	4
185	818	0.531276162993	1
185	947	0.532928557901	2
185	1023	0.534161755355	4
186	832	0.531318162993	0
186	832	0.531318162993	4.4e-05
186	850	0.531362162993	0
186	904	0.532411360447	0
186	904	0.532411360447	4.4e-05
186	922	0.532455360447	0
186	980	0.533644557901	0
186	980	0.533644557901	4.4e-05
186	998	0.533688557901	0
187	1146	0.593768234528	1
187	1297	0.594920739876	2
187	1385	0.59581399255	4
8	1495	0.789177300176	3
8	1504	0.789223300176	2
12	1500	0.789177926513	3
13	1501	0.789177926513	3
15	1499	0.789177898903	3
16	1495	0.789177300176	0
16	1504	0.789223300176	1
45	1492	0.789177300176	51
46	1492	0.789177300176	1
46	1494	0.789177300176	0
47	1492	0.789177300176	23
48	1492	0.789177300176	1
48	1493	0.789177300176	0
49	1494	0.789177300176	51
50	1494	0.789177300176	0
51	1494	0.789177300176	1
51	1502	0.789223300176	0
52	1494	0.789177300176	24000000
53	1494	0.789177300176	51
54	1494	0.789177300176	1
54	1502	0.789223300176	0
55	1495	0.789177300176	1
55	1496	0.789177300176	2
55	1502	0.789223300176	1
55	1504	0.789223300176	0
56	1502	0.789223300176	51
57	1502	0.789223300176	51
58	1502	0.789223300176	51
59	1502	0.789223300176	51
60	1502	0.789223300176	4.6e-05
15	1506	0.789223898903	1
61	1507	0.789223898903	51
62	1507	0.789223898903	51
63	1507	0.789223898903	51
64	1507	0.789223898903	51
65	1507	0.789223898903	51
12	1509	0.789223926513	1
13	1510	0.789223926513	1
66	1511	0.789223926513	51
67	1511	0.789223926513	51
68	1511	0.789223926513	51
69	1511	0.789223926513	51
70	1511	0.789223926513	51
71	1512	0.789223926513	51
72	1512	0.789223926513	51
73	1512	0.789223926513	51
74	1512	0.789223926513	51
75	1512	0.789223926513	51
24	1517	0.805671297573	49
25	1517	0.805671297573	1
26	1517	0.805671297573	3
27	1517	0.805671297573	1
27	1518	0.805671297573	0
25	1519	0.805671297573	0
28	1519	0.805671297573	49
29	1519	0.805671297573	0
30	1519	0.805671297573	1
31	1519	0.805671297573	24000000
32	1519	0.805671297573	49
33	1519	0.805671297573	1
10	1520	0.805671297573	3
17	1520	0.805671297573	0
34	1520	0.805671297573	1
34	1521	0.805671297573	2
14	1523	0.8056718963	3
30	1527	0.805717297573	0
33	1527	0.805717297573	0
34	1527	0.805717297573	1
35	1527	0.805717297573	49
36	1527	0.805717297573	49
37	1527	0.805717297573	49
38	1527	0.805717297573	49
39	1527	0.805717297573	4.6e-05
10	1529	0.805717297573	2
17	1529	0.805717297573	1
34	1529	0.805717297573	0
14	1530	0.8057178963	1
40	1532	0.8057178963	49
41	1532	0.8057178963	49
42	1532	0.8057178963	49
43	1532	0.8057178963	49
44	1532	0.8057178963	49
vector 188 MultiRadioShowcase.host1.app[0] pingTxSeq:vector ETV
attr interpolationmode none
attr title "ping tx seq, vector"
188	1537	0.84426574409	0
vector 189 MultiRadioShowcase.host1.wlan[0].mac packetReceivedFromUpper:vector(packetBytes) ETV
attr interpolationmode none
attr title "packets received from upper layer, vector(packetBytes)"
165	1541	0.84426574409	120
166	1541	0.84426574409	1
167	1541	0.84426574409	30
168	1541	0.84426574409	1
189	1541	0.84426574409	92
168	1542	0.84426574409	0
166	1543	0.84426574409	0
169	1543	0.84426574409	120
170	1543	0.84426574409	0
171	1543	0.84426574409	1
172	1543	0.84426574409	24000000
173	1543	0.84426574409	120
174	1543	0.84426574409	1
0	1544	0.84426574409	3
12	1544	0.84426574409	0
175	1544	0.84426574409	1
175	1545	0.84426574409	2
13	1546	0.84426574409	3
16	1547	0.844266370427	3
15	1550	0.844266758125	3
103	1551	0.84433574409	0
103	1551	0.84433574409	4.4e-05
175	1551	0.84433574409	1
176	1551	0.84433574409	120
179	1551	0.84433574409	120
182	1551	0.84433574409	120
13	1552	0.84433574409	1
0	1553	0.84433574409	2
12	1553	0.84433574409	1
175	1553	0.84433574409	0
71	1554	0.84433574409	120
108	1554	0.84433574409	0
108	1554	0.84433574409	4.4e-05
109	1554	0.84433574409	120
110	1554	0.84433574409	120
111	1554	0.84433574409	120
112	1554	0.84433574409	120
16	1555	0.844336370427	1
vector 190 MultiRadioShowcase.accessPoint.wlan[0].mac packetSentToUpper:vector(packetBytes) ETV
attr interpolationmode none
attr title "packets sent to upper layer, vector(packetBytes)"
52	1557	0.844336370427	24000000
95	1557	0.844336370427	120
96	1557	0.844336370427	120
99	1557	0.844336370427	120
114	1557	0.844336370427	120
190	1557	0.844336370427	92
vector 191 MultiRadioShowcase.accessPoint.wlan[1].mac packetReceivedFromUpper:vector(packetBytes) ETV
attr interpolationmode none
attr title "packets received from upper layer, vector(packetBytes)"
24	1561	0.844336370427	120
25	1561	0.844336370427	1
26	1561	0.844336370427	11
27	1561	0.844336370427	1
191	1561	0.844336370427	92
27	1562	0.844336370427	0
25	1563	0.844336370427	0
28	1563	0.844336370427	120
29	1563	0.844336370427	0
30	1563	0.844336370427	1
31	1563	0.844336370427	24000000
32	1563	0.844336370427	120
33	1563	0.844336370427	1
10	1564	0.844336370427	3
17	1564	0.844336370427	0
34	1564	0.844336370427	1
34	1565	0.844336370427	2
15	1568	0.844336758125	1
61	1569	0.844336758125	120
132	1569	0.844336758125	0
132	1569	0.844336758125	4.4e-05
133	1569	0.844336758125	120
134	1569	0.844336758125	120
135	1569	0.844336758125	120
136	1569	0.844336758125	120
14	1570	0.844336969154	3
53	1574	0.844346370427	14
8	1575	0.844346370427	3
16	1575	0.844346370427	0
55	1575	0.844346370427	1
55	1576	0.844346370427	2
15	1579	0.844346969154	3
12	1580	0.844346996764	3
13	1581	0.844346996764	3
103	1582	0.84437974409	0
108	1583	0.84437974409	0
55	1584	0.844380370427	1
56	1584	0.844380370427	14
59	1584	0.844380370427	14
100	1584	0.844380370427	14

