version 2
run General-0-20220518-03:28:42-4072
attr configname General
attr datetime 20220518-03:28:42
attr experiment General
attr inifile omnetpp.ini
attr iterationvars ""
attr iterationvarsf ""
attr measurement ""
attr network MultiRadioShowcase
attr processid 4072
attr repetition 0
attr replication #0
attr resultdir results
attr runnumber 0
attr seedset 0
param *.host*.numWlanInterfaces 5
param *.host*.numApps 1
param *.host*.wlan[*].radio.displayCommunicationRange true
param *.host*.app[*].localPort 100
param *.host*.app[*].destPort 100
param *.host*.app[*].messageLength 1000B
param *.host*.app[*].startTime exponential(100us)
param *.host*.app[*].sendInterval exponential(200ms)
param *.host_Beginning.app[0].typename "\"UdpBasicApp\""
param *.host_Beginning.app[0].destAddresses "\"host_End\""
param *.host_End.app[0].typename "\"UdpSink\""
param *.host_DifferentApp.app[0].typename "\"UdpBasicApp\""
param *.host_DifferentApp.app[0].destAddresses "\"host_End\""
param *.host_Middle.app[0].typename "\"UdpBasicApp\""
param **.numMediumVisualizers 4
param **.displaySignals true
param *.visualizer.interfaceTableVisualizer[0].displayInterfaceTables true
param *.visualizer.interfaceTableVisualizer[0].placementHint "\"top\""
param *.visualizer.ieee80211Visualizer[0].displayAssociations true
param **.arp.typename "\"GlobalArp\""

vector 0 MultiRadioShowcase.host_Beginning.wlan[0].radio radioMode:vector ETV
attr interpolationmode sample-hold
attr source radioModeChanged
attr title "Radio mode, vector"
vector 1 MultiRadioShowcase.host_Beginning.wlan[0].radio radioChannel:vector ETV
attr interpolationmode sample-hold
attr source radioChannelChanged
attr title "Radio channel, vector"
vector 2 MultiRadioShowcase.host_Beginning.wlan[1].radio radioMode:vector ETV
attr interpolationmode sample-hold
attr source radioModeChanged
attr title "Radio mode, vector"
vector 3 MultiRadioShowcase.host_Beginning.wlan[1].radio radioChannel:vector ETV
attr interpolationmode sample-hold
attr source radioChannelChanged
attr title "Radio channel, vector"
vector 4 MultiRadioShowcase.host_Beginning.wlan[2].radio radioMode:vector ETV
attr interpolationmode sample-hold
attr source radioModeChanged
attr title "Radio mode, vector"
vector 5 MultiRadioShowcase.host_Beginning.wlan[2].radio radioChannel:vector ETV
attr interpolationmode sample-hold
attr source radioChannelChanged
attr title "Radio channel, vector"
vector 6 MultiRadioShowcase.host_Beginning.wlan[3].radio radioMode:vector ETV
attr interpolationmode sample-hold
attr source radioModeChanged
attr title "Radio mode, vector"
vector 7 MultiRadioShowcase.host_Beginning.wlan[3].radio radioChannel:vector ETV
attr interpolationmode sample-hold
attr source radioChannelChanged
attr title "Radio channel, vector"
vector 8 MultiRadioShowcase.host_Beginning.wlan[4].radio radioMode:vector ETV
attr interpolationmode sample-hold
attr source radioModeChanged
attr title "Radio mode, vector"
vector 9 MultiRadioShowcase.host_Beginning.wlan[4].radio radioChannel:vector ETV
attr interpolationmode sample-hold
attr source radioChannelChanged
attr title "Radio channel, vector"
vector 10 MultiRadioShowcase.host_Middle.wlan[0].radio radioMode:vector ETV
attr interpolationmode sample-hold
attr source radioModeChanged
attr title "Radio mode, vector"
vector 11 MultiRadioShowcase.host_Middle.wlan[0].radio radioChannel:vector ETV
attr interpolationmode sample-hold
attr source radioChannelChanged
attr title "Radio channel, vector"
vector 12 MultiRadioShowcase.host_Middle.wlan[1].radio radioMode:vector ETV
attr interpolationmode sample-hold
attr source radioModeChanged
attr title "Radio mode, vector"
vector 13 MultiRadioShowcase.host_Middle.wlan[1].radio radioChannel:vector ETV
attr interpolationmode sample-hold
attr source radioChannelChanged
attr title "Radio channel, vector"
vector 14 MultiRadioShowcase.host_Middle.wlan[2].radio radioMode:vector ETV
attr interpolationmode sample-hold
attr source radioModeChanged
attr title "Radio mode, vector"
vector 15 MultiRadioShowcase.host_Middle.wlan[2].radio radioChannel:vector ETV
attr interpolationmode sample-hold
attr source radioChannelChanged
attr title "Radio channel, vector"
vector 16 MultiRadioShowcase.host_Middle.wlan[3].radio radioMode:vector ETV
attr interpolationmode sample-hold
attr source radioModeChanged
attr title "Radio mode, vector"
vector 17 MultiRadioShowcase.host_Middle.wlan[3].radio radioChannel:vector ETV
attr interpolationmode sample-hold
attr source radioChannelChanged
attr title "Radio channel, vector"
vector 18 MultiRadioShowcase.host_Middle.wlan[4].radio radioMode:vector ETV
attr interpolationmode sample-hold
attr source radioModeChanged
attr title "Radio mode, vector"
vector 19 MultiRadioShowcase.host_Middle.wlan[4].radio radioChannel:vector ETV
attr interpolationmode sample-hold
attr source radioChannelChanged
attr title "Radio channel, vector"
vector 20 MultiRadioShowcase.host_End.wlan[0].radio radioMode:vector ETV
attr interpolationmode sample-hold
attr source radioModeChanged
attr title "Radio mode, vector"
vector 21 MultiRadioShowcase.host_End.wlan[0].radio radioChannel:vector ETV
attr interpolationmode sample-hold
attr source radioChannelChanged
attr title "Radio channel, vector"
vector 22 MultiRadioShowcase.host_End.wlan[1].radio radioMode:vector ETV
attr interpolationmode sample-hold
attr source radioModeChanged
attr title "Radio mode, vector"
vector 23 MultiRadioShowcase.host_End.wlan[1].radio radioChannel:vector ETV
attr interpolationmode sample-hold
attr source radioChannelChanged
attr title "Radio channel, vector"
vector 24 MultiRadioShowcase.host_End.wlan[2].radio radioMode:vector ETV
attr interpolationmode sample-hold
attr source radioModeChanged
attr title "Radio mode, vector"
vector 25 MultiRadioShowcase.host_End.wlan[2].radio radioChannel:vector ETV
attr interpolationmode sample-hold
attr source radioChannelChanged
attr title "Radio channel, vector"
vector 26 MultiRadioShowcase.host_End.wlan[3].radio radioMode:vector ETV
attr interpolationmode sample-hold
attr source radioModeChanged
attr title "Radio mode, vector"
vector 27 MultiRadioShowcase.host_End.wlan[3].radio radioChannel:vector ETV
attr interpolationmode sample-hold
attr source radioChannelChanged
attr title "Radio channel, vector"
vector 28 MultiRadioShowcase.host_End.wlan[4].radio radioMode:vector ETV
attr interpolationmode sample-hold
attr source radioModeChanged
attr title "Radio mode, vector"
vector 29 MultiRadioShowcase.host_End.wlan[4].radio radioChannel:vector ETV
attr interpolationmode sample-hold
attr source radioChannelChanged
attr title "Radio channel, vector"
vector 30 MultiRadioShowcase.host_DifferentApp.wlan[0].radio radioMode:vector ETV
attr interpolationmode sample-hold
attr source radioModeChanged
attr title "Radio mode, vector"
vector 31 MultiRadioShowcase.host_DifferentApp.wlan[0].radio radioChannel:vector ETV
attr interpolationmode sample-hold
attr source radioChannelChanged
attr title "Radio channel, vector"
vector 32 MultiRadioShowcase.host_DifferentApp.wlan[1].radio radioMode:vector ETV
attr interpolationmode sample-hold
attr source radioModeChanged
attr title "Radio mode, vector"
vector 33 MultiRadioShowcase.host_DifferentApp.wlan[1].radio radioChannel:vector ETV
attr interpolationmode sample-hold
attr source radioChannelChanged
attr title "Radio channel, vector"
vector 34 MultiRadioShowcase.host_DifferentApp.wlan[2].radio radioMode:vector ETV
attr interpolationmode sample-hold
attr source radioModeChanged
attr title "Radio mode, vector"
vector 35 MultiRadioShowcase.host_DifferentApp.wlan[2].radio radioChannel:vector ETV
attr interpolationmode sample-hold
attr source radioChannelChanged
attr title "Radio channel, vector"
vector 36 MultiRadioShowcase.host_DifferentApp.wlan[3].radio radioMode:vector ETV
attr interpolationmode sample-hold
attr source radioModeChanged
attr title "Radio mode, vector"
vector 37 MultiRadioShowcase.host_DifferentApp.wlan[3].radio radioChannel:vector ETV
attr interpolationmode sample-hold
attr source radioChannelChanged
attr title "Radio channel, vector"
vector 38 MultiRadioShowcase.host_DifferentApp.wlan[4].radio radioMode:vector ETV
attr interpolationmode sample-hold
attr source radioModeChanged
attr title "Radio mode, vector"
vector 39 MultiRadioShowcase.host_DifferentApp.wlan[4].radio radioChannel:vector ETV
attr interpolationmode sample-hold
attr source radioChannelChanged
attr title "Radio channel, vector"
vector 40 MultiRadioShowcase.host_Beginning.wlan[0].radio receptionState:vector ETV
attr interpolationmode sample-hold
attr source receptionStateChanged
attr title "Radio reception state, vector"
vector 41 MultiRadioShowcase.host_Beginning.wlan[1].radio receptionState:vector ETV
attr interpolationmode sample-hold
attr source receptionStateChanged
attr title "Radio reception state, vector"
vector 42 MultiRadioShowcase.host_Beginning.wlan[2].radio receptionState:vector ETV
attr interpolationmode sample-hold
attr source receptionStateChanged
attr title "Radio reception state, vector"
vector 43 MultiRadioShowcase.host_Beginning.wlan[3].radio receptionState:vector ETV
attr interpolationmode sample-hold
attr source receptionStateChanged
attr title "Radio reception state, vector"
vector 44 MultiRadioShowcase.host_Beginning.wlan[4].radio receptionState:vector ETV
attr interpolationmode sample-hold
attr source receptionStateChanged
attr title "Radio reception state, vector"
vector 45 MultiRadioShowcase.host_Middle.wlan[0].radio receptionState:vector ETV
attr interpolationmode sample-hold
attr source receptionStateChanged
attr title "Radio reception state, vector"
vector 46 MultiRadioShowcase.host_Middle.wlan[1].radio receptionState:vector ETV
attr interpolationmode sample-hold
attr source receptionStateChanged
attr title "Radio reception state, vector"
vector 47 MultiRadioShowcase.host_Middle.wlan[2].radio receptionState:vector ETV
attr interpolationmode sample-hold
attr source receptionStateChanged
attr title "Radio reception state, vector"
vector 48 MultiRadioShowcase.host_Middle.wlan[3].radio receptionState:vector ETV
attr interpolationmode sample-hold
attr source receptionStateChanged
attr title "Radio reception state, vector"
vector 49 MultiRadioShowcase.host_Middle.wlan[4].radio receptionState:vector ETV
attr interpolationmode sample-hold
attr source receptionStateChanged
attr title "Radio reception state, vector"
vector 50 MultiRadioShowcase.host_End.wlan[0].radio receptionState:vector ETV
attr interpolationmode sample-hold
attr source receptionStateChanged
attr title "Radio reception state, vector"
vector 51 MultiRadioShowcase.host_End.wlan[1].radio receptionState:vector ETV
attr interpolationmode sample-hold
attr source receptionStateChanged
attr title "Radio reception state, vector"
vector 52 MultiRadioShowcase.host_End.wlan[2].radio receptionState:vector ETV
attr interpolationmode sample-hold
attr source receptionStateChanged
attr title "Radio reception state, vector"
vector 53 MultiRadioShowcase.host_End.wlan[3].radio receptionState:vector ETV
attr interpolationmode sample-hold
attr source receptionStateChanged
attr title "Radio reception state, vector"
vector 54 MultiRadioShowcase.host_End.wlan[4].radio receptionState:vector ETV
attr interpolationmode sample-hold
attr source receptionStateChanged
attr title "Radio reception state, vector"
vector 55 MultiRadioShowcase.host_DifferentApp.wlan[0].radio receptionState:vector ETV
attr interpolationmode sample-hold
attr source receptionStateChanged
attr title "Radio reception state, vector"
vector 56 MultiRadioShowcase.host_DifferentApp.wlan[1].radio receptionState:vector ETV
attr interpolationmode sample-hold
attr source receptionStateChanged
attr title "Radio reception state, vector"
vector 57 MultiRadioShowcase.host_DifferentApp.wlan[2].radio receptionState:vector ETV
attr interpolationmode sample-hold
attr source receptionStateChanged
attr title "Radio reception state, vector"
vector 58 MultiRadioShowcase.host_DifferentApp.wlan[3].radio receptionState:vector ETV
attr interpolationmode sample-hold
attr source receptionStateChanged
attr title "Radio reception state, vector"
vector 59 MultiRadioShowcase.host_DifferentApp.wlan[4].radio receptionState:vector ETV
attr interpolationmode sample-hold
attr source receptionStateChanged
attr title "Radio reception state, vector"
vector 60 MultiRadioShowcase.host_Beginning.wlan[0].mac.dcf.recoveryProcedure contentionWindowChanged:vector ETV
attr interpolationmode sample-hold
attr title "contention window, vector"
vector 61 MultiRadioShowcase.host_Beginning.wlan[1].mac.dcf.recoveryProcedure contentionWindowChanged:vector ETV
attr interpolationmode sample-hold
attr title "contention window, vector"
vector 62 MultiRadioShowcase.host_Beginning.wlan[2].mac.dcf.recoveryProcedure contentionWindowChanged:vector ETV
attr interpolationmode sample-hold
attr title "contention window, vector"
vector 63 MultiRadioShowcase.host_Beginning.wlan[3].mac.dcf.recoveryProcedure contentionWindowChanged:vector ETV
attr interpolationmode sample-hold
attr title "contention window, vector"
vector 64 MultiRadioShowcase.host_Beginning.wlan[4].mac.dcf.recoveryProcedure contentionWindowChanged:vector ETV
attr interpolationmode sample-hold
attr title "contention window, vector"
vector 65 MultiRadioShowcase.host_Middle.wlan[0].mac.dcf.recoveryProcedure contentionWindowChanged:vector ETV
attr interpolationmode sample-hold
attr title "contention window, vector"
vector 66 MultiRadioShowcase.host_Middle.wlan[1].mac.dcf.recoveryProcedure contentionWindowChanged:vector ETV
attr interpolationmode sample-hold
attr title "contention window, vector"
vector 67 MultiRadioShowcase.host_Middle.wlan[2].mac.dcf.recoveryProcedure contentionWindowChanged:vector ETV
attr interpolationmode sample-hold
attr title "contention window, vector"
vector 68 MultiRadioShowcase.host_Middle.wlan[3].mac.dcf.recoveryProcedure contentionWindowChanged:vector ETV
attr interpolationmode sample-hold
attr title "contention window, vector"
vector 69 MultiRadioShowcase.host_Middle.wlan[4].mac.dcf.recoveryProcedure contentionWindowChanged:vector ETV
attr interpolationmode sample-hold
attr title "contention window, vector"
vector 70 MultiRadioShowcase.host_End.wlan[0].mac.dcf.recoveryProcedure contentionWindowChanged:vector ETV
attr interpolationmode sample-hold
attr title "contention window, vector"
vector 71 MultiRadioShowcase.host_End.wlan[1].mac.dcf.recoveryProcedure contentionWindowChanged:vector ETV
attr interpolationmode sample-hold
attr title "contention window, vector"
vector 72 MultiRadioShowcase.host_End.wlan[2].mac.dcf.recoveryProcedure contentionWindowChanged:vector ETV
attr interpolationmode sample-hold
attr title "contention window, vector"
vector 73 MultiRadioShowcase.host_End.wlan[3].mac.dcf.recoveryProcedure contentionWindowChanged:vector ETV
attr interpolationmode sample-hold
attr title "contention window, vector"
vector 74 MultiRadioShowcase.host_End.wlan[4].mac.dcf.recoveryProcedure contentionWindowChanged:vector ETV
attr interpolationmode sample-hold
attr title "contention window, vector"
vector 75 MultiRadioShowcase.host_DifferentApp.wlan[0].mac.dcf.recoveryProcedure contentionWindowChanged:vector ETV
attr interpolationmode sample-hold
attr title "contention window, vector"
vector 76 MultiRadioShowcase.host_DifferentApp.wlan[1].mac.dcf.recoveryProcedure contentionWindowChanged:vector ETV
attr interpolationmode sample-hold
attr title "contention window, vector"
vector 77 MultiRadioShowcase.host_DifferentApp.wlan[2].mac.dcf.recoveryProcedure contentionWindowChanged:vector ETV
attr interpolationmode sample-hold
attr title "contention window, vector"
vector 78 MultiRadioShowcase.host_DifferentApp.wlan[3].mac.dcf.recoveryProcedure contentionWindowChanged:vector ETV
attr interpolationmode sample-hold
attr title "contention window, vector"
vector 79 MultiRadioShowcase.host_DifferentApp.wlan[4].mac.dcf.recoveryProcedure contentionWindowChanged:vector ETV
attr interpolationmode sample-hold
attr title "contention window, vector"
vector 80 MultiRadioShowcase.host_DifferentApp.app[0] packetSent:vector(packetBytes) ETV
attr interpolationmode none
attr source packetSent
attr title "packets sent, vector(packetBytes)"
vector 81 MultiRadioShowcase.host_DifferentApp.udp packetSent:vector(packetBytes) ETV
attr interpolationmode none
attr source packetSent
attr title "packets sent, vector(packetBytes)"
vector 82 MultiRadioShowcase.host_DifferentApp.wlan[0].mac packetReceivedFromUpper:vector(packetBytes) ETV
attr interpolationmode none
attr title "packets received from upper layer, vector(packetBytes)"
vector 83 MultiRadioShowcase.host_DifferentApp.wlan[0].mac.dcf.channelAccess.pendingQueue packetPushed:vector(packetBytes) ETV
attr interpolationmode none
attr title "packet pushed, vector(packetBytes)"
vector 84 MultiRadioShowcase.host_DifferentApp.wlan[0].mac.dcf.channelAccess.pendingQueue queueLength:vector ETV
attr interpolationmode sample-hold
attr source "count(packetPushed) - count(packetPopped) - count(packetRemoved) - count(packetDropped)"
attr title "queue length, vector"
vector 85 MultiRadioShowcase.host_DifferentApp.wlan[0].mac.dcf.channelAccess.contention backoffPeriodGenerated:vector ETV
attr interpolationmode none
attr title "backoff periods, vector"
vector 86 MultiRadioShowcase.host_DifferentApp.wlan[0].mac.dcf.channelAccess.contention backoffActive:vector ETV
attr interpolationmode sample-hold
attr source count(backoffStarted)-count(backoffStopped)
attr title "backoff active, vector"
vector 87 MultiRadioShowcase.host_Beginning.app[0] packetSent:vector(packetBytes) ETV
attr interpolationmode none
attr source packetSent
attr title "packets sent, vector(packetBytes)"
vector 88 MultiRadioShowcase.host_Beginning.udp packetSent:vector(packetBytes) ETV
attr interpolationmode none
attr source packetSent
attr title "packets sent, vector(packetBytes)"
vector 89 MultiRadioShowcase.host_Beginning.wlan[1].mac packetReceivedFromUpper:vector(packetBytes) ETV
attr interpolationmode none
attr title "packets received from upper layer, vector(packetBytes)"
vector 90 MultiRadioShowcase.host_Beginning.wlan[1].mac.dcf.channelAccess.pendingQueue packetPushed:vector(packetBytes) ETV
attr interpolationmode none
attr title "packet pushed, vector(packetBytes)"
vector 91 MultiRadioShowcase.host_Beginning.wlan[1].mac.dcf.channelAccess.pendingQueue queueLength:vector ETV
attr interpolationmode sample-hold
attr source "count(packetPushed) - count(packetPopped) - count(packetRemoved) - count(packetDropped)"
attr title "queue length, vector"
vector 92 MultiRadioShowcase.host_Beginning.wlan[1].mac.dcf.channelAccess.contention backoffPeriodGenerated:vector ETV
attr interpolationmode none
attr title "backoff periods, vector"
vector 93 MultiRadioShowcase.host_Beginning.wlan[1].mac.dcf.channelAccess.contention backoffActive:vector ETV
attr interpolationmode sample-hold
attr source count(backoffStarted)-count(backoffStopped)
attr title "backoff active, vector"
vector 94 MultiRadioShowcase.host_Beginning.wlan[1].mac.dcf.channelAccess.pendingQueue packetPopped:vector(packetBytes) ETV
attr interpolationmode none
attr title "packet popped, vector(packetBytes)"
vector 95 MultiRadioShowcase.host_Beginning.wlan[1].mac.dcf.channelAccess.pendingQueue queueingTime:vector ETV
attr interpolationmode none
attr source queueingTime(packetPopped)
attr title "queueing times, vector"
attr unit s
vector 96 MultiRadioShowcase.host_Beginning.wlan[1].mac.dcf.channelAccess.inProgressFrames queueLength:vector ETV
attr interpolationmode sample-hold
attr source "count(packetEnqueued) - count(packetDequeued)"
attr title "queue length, vector"
vector 97 MultiRadioShowcase.host_Beginning.wlan[1].mac.dcf datarateSelected:vector ETV
attr interpolationmode none
attr title "datarates selected, vector"
vector 98 MultiRadioShowcase.host_Beginning.wlan[1].mac packetSentToLower:vector(packetBytes) ETV
attr interpolationmode none
attr title "packets sent to lower layer, vector(packetBytes)"
vector 99 MultiRadioShowcase.host_Beginning.wlan[1].mac.dcf frameSequenceActive:vector ETV
attr interpolationmode sample-hold
attr source count(frameSequenceStarted)-count(frameSequenceFinished)
attr title "frame sequence active, vector"
vector 100 MultiRadioShowcase.host_Beginning.wlan[1].radio transmissionState:vector ETV
attr interpolationmode sample-hold
attr source transmissionStateChanged
attr title "Radio transmission state, vector"
vector 101 MultiRadioShowcase.host_Beginning.wlan[1].mac.dcf packetSentToPeer:vector(packetBytes) ETV
attr interpolationmode none
attr title "packets sent, vector(packetBytes)"
vector 102 MultiRadioShowcase.host_Beginning.wlan[1].mac.dcf packetSentToPeerUnicast:vector(packetBytes) ETV
attr interpolationmode none
attr source ieee80211Unicast(packetSentToPeer)
attr title "packets sent: unicast, vector(packetBytes)"
vector 103 MultiRadioShowcase.host_Beginning.wlan[1].mac.dcf packetSentToPeerWithoutRetry:vector(packetBytes) ETV
attr interpolationmode none
attr source ieee80211NotRetry(packetSentToPeer)
attr title "packets sent: without retry, vector(packetBytes)"
vector 104 MultiRadioShowcase.host_Beginning.wlan[1].mac.rx nav:vector ETV
attr interpolationmode linear
attr source navChanged
attr title "network allocation vector, vector"
vector 105 MultiRadioShowcase.host_Beginning.wlan[0].mac packetReceivedFromLower:vector(packetBytes) ETV
attr interpolationmode none
attr title "packets received from lower layer, vector(packetBytes)"
vector 106 MultiRadioShowcase.host_Beginning.wlan[0].mac.rx nav:vector ETV
attr interpolationmode linear
attr source navChanged
attr title "network allocation vector, vector"
vector 107 MultiRadioShowcase.host_Beginning.wlan[0].mac.dcf packetDrop:vector(packetBytes) ETV
attr interpolationmode none
attr source packetDropped
attr title "packet drops, vector(packetBytes)"
vector 108 MultiRadioShowcase.host_Beginning.wlan[0].mac.dcf packetDropNotAddressedToUs:vector(packetBytes) ETV
attr interpolationmode none
attr source packetDropReasonIsNotAddressedToUs(packetDropped)
attr title "packet drops: not addressed to us, vector(packetBytes)"
vector 109 MultiRadioShowcase.host_Beginning.wlan[0].mac packetDrop:vector(packetBytes) ETV
attr interpolationmode none
attr source packetDropped
attr title "packet drops, vector(packetBytes)"
vector 110 MultiRadioShowcase.host_Beginning.wlan[0].mac packetDropNotAddressedToUs:vector(packetBytes) ETV
attr interpolationmode none
attr source packetDropReasonIsNotAddressedToUs(packetDropped)
attr title "packet drops: not addressed to us, vector(packetBytes)"
vector 111 MultiRadioShowcase.host_Beginning.wlan[2].mac packetReceivedFromLower:vector(packetBytes) ETV
attr interpolationmode none
attr title "packets received from lower layer, vector(packetBytes)"
vector 112 MultiRadioShowcase.host_Beginning.wlan[2].mac.rx nav:vector ETV
attr interpolationmode linear
attr source navChanged
attr title "network allocation vector, vector"
vector 113 MultiRadioShowcase.host_Beginning.wlan[2].mac.dcf packetDrop:vector(packetBytes) ETV
attr interpolationmode none
attr source packetDropped
attr title "packet drops, vector(packetBytes)"
vector 114 MultiRadioShowcase.host_Beginning.wlan[2].mac.dcf packetDropNotAddressedToUs:vector(packetBytes) ETV
attr interpolationmode none
attr source packetDropReasonIsNotAddressedToUs(packetDropped)
attr title "packet drops: not addressed to us, vector(packetBytes)"
vector 115 MultiRadioShowcase.host_Beginning.wlan[2].mac packetDrop:vector(packetBytes) ETV
attr interpolationmode none
attr source packetDropped
attr title "packet drops, vector(packetBytes)"
vector 116 MultiRadioShowcase.host_Beginning.wlan[2].mac packetDropNotAddressedToUs:vector(packetBytes) ETV
attr interpolationmode none
attr source packetDropReasonIsNotAddressedToUs(packetDropped)
attr title "packet drops: not addressed to us, vector(packetBytes)"
vector 117 MultiRadioShowcase.host_Beginning.wlan[3].mac packetReceivedFromLower:vector(packetBytes) ETV
attr interpolationmode none
attr title "packets received from lower layer, vector(packetBytes)"
vector 118 MultiRadioShowcase.host_Beginning.wlan[3].mac.rx nav:vector ETV
attr interpolationmode linear
attr source navChanged
attr title "network allocation vector, vector"
vector 119 MultiRadioShowcase.host_Beginning.wlan[3].mac.dcf packetDrop:vector(packetBytes) ETV
attr interpolationmode none
attr source packetDropped
attr title "packet drops, vector(packetBytes)"
vector 120 MultiRadioShowcase.host_Beginning.wlan[3].mac.dcf packetDropNotAddressedToUs:vector(packetBytes) ETV
attr interpolationmode none
attr source packetDropReasonIsNotAddressedToUs(packetDropped)
attr title "packet drops: not addressed to us, vector(packetBytes)"
vector 121 MultiRadioShowcase.host_Beginning.wlan[3].mac packetDrop:vector(packetBytes) ETV
attr interpolationmode none
attr source packetDropped
attr title "packet drops, vector(packetBytes)"
vector 122 MultiRadioShowcase.host_Beginning.wlan[3].mac packetDropNotAddressedToUs:vector(packetBytes) ETV
attr interpolationmode none
attr source packetDropReasonIsNotAddressedToUs(packetDropped)
attr title "packet drops: not addressed to us, vector(packetBytes)"
vector 123 MultiRadioShowcase.host_Beginning.wlan[4].mac packetReceivedFromLower:vector(packetBytes) ETV
attr interpolationmode none
attr title "packets received from lower layer, vector(packetBytes)"
vector 124 MultiRadioShowcase.host_Beginning.wlan[4].mac.rx nav:vector ETV
attr interpolationmode linear
attr source navChanged
attr title "network allocation vector, vector"
vector 125 MultiRadioShowcase.host_Beginning.wlan[4].mac.dcf packetDrop:vector(packetBytes) ETV
attr interpolationmode none
attr source packetDropped
attr title "packet drops, vector(packetBytes)"
vector 126 MultiRadioShowcase.host_Beginning.wlan[4].mac.dcf packetDropNotAddressedToUs:vector(packetBytes) ETV
attr interpolationmode none
attr source packetDropReasonIsNotAddressedToUs(packetDropped)
attr title "packet drops: not addressed to us, vector(packetBytes)"
vector 127 MultiRadioShowcase.host_Beginning.wlan[4].mac packetDrop:vector(packetBytes) ETV
attr interpolationmode none
attr source packetDropped
attr title "packet drops, vector(packetBytes)"
vector 128 MultiRadioShowcase.host_Beginning.wlan[4].mac packetDropNotAddressedToUs:vector(packetBytes) ETV
attr interpolationmode none
attr source packetDropReasonIsNotAddressedToUs(packetDropped)
attr title "packet drops: not addressed to us, vector(packetBytes)"
vector 129 MultiRadioShowcase.host_DifferentApp.wlan[0].mac packetReceivedFromLower:vector(packetBytes) ETV
attr interpolationmode none
attr title "packets received from lower layer, vector(packetBytes)"
vector 130 MultiRadioShowcase.host_DifferentApp.wlan[0].mac.rx nav:vector ETV
attr interpolationmode linear
attr source navChanged
attr title "network allocation vector, vector"
vector 131 MultiRadioShowcase.host_DifferentApp.wlan[0].mac.dcf packetDrop:vector(packetBytes) ETV
attr interpolationmode none
attr source packetDropped
attr title "packet drops, vector(packetBytes)"
vector 132 MultiRadioShowcase.host_DifferentApp.wlan[0].mac.dcf packetDropNotAddressedToUs:vector(packetBytes) ETV
attr interpolationmode none
attr source packetDropReasonIsNotAddressedToUs(packetDropped)
attr title "packet drops: not addressed to us, vector(packetBytes)"
vector 133 MultiRadioShowcase.host_DifferentApp.wlan[0].mac packetDrop:vector(packetBytes) ETV
attr interpolationmode none
attr source packetDropped
attr title "packet drops, vector(packetBytes)"
vector 134 MultiRadioShowcase.host_DifferentApp.wlan[0].mac packetDropNotAddressedToUs:vector(packetBytes) ETV
attr interpolationmode none
attr source packetDropReasonIsNotAddressedToUs(packetDropped)
attr title "packet drops: not addressed to us, vector(packetBytes)"
vector 135 MultiRadioShowcase.host_DifferentApp.wlan[1].mac packetReceivedFromLower:vector(packetBytes) ETV
attr interpolationmode none
attr title "packets received from lower layer, vector(packetBytes)"
vector 136 MultiRadioShowcase.host_DifferentApp.wlan[1].mac.rx nav:vector ETV
attr interpolationmode linear
attr source navChanged
attr title "network allocation vector, vector"
vector 137 MultiRadioShowcase.host_DifferentApp.wlan[1].mac.dcf packetDrop:vector(packetBytes) ETV
attr interpolationmode none
attr source packetDropped
attr title "packet drops, vector(packetBytes)"
vector 138 MultiRadioShowcase.host_DifferentApp.wlan[1].mac.dcf packetDropNotAddressedToUs:vector(packetBytes) ETV
attr interpolationmode none
attr source packetDropReasonIsNotAddressedToUs(packetDropped)
attr title "packet drops: not addressed to us, vector(packetBytes)"
vector 139 MultiRadioShowcase.host_DifferentApp.wlan[1].mac packetDrop:vector(packetBytes) ETV
attr interpolationmode none
attr source packetDropped
attr title "packet drops, vector(packetBytes)"
vector 140 MultiRadioShowcase.host_DifferentApp.wlan[1].mac packetDropNotAddressedToUs:vector(packetBytes) ETV
attr interpolationmode none
attr source packetDropReasonIsNotAddressedToUs(packetDropped)
attr title "packet drops: not addressed to us, vector(packetBytes)"
vector 141 MultiRadioShowcase.host_DifferentApp.wlan[2].mac packetReceivedFromLower:vector(packetBytes) ETV
attr interpolationmode none
attr title "packets received from lower layer, vector(packetBytes)"
vector 142 MultiRadioShowcase.host_DifferentApp.wlan[2].mac.rx nav:vector ETV
attr interpolationmode linear
attr source navChanged
attr title "network allocation vector, vector"
vector 143 MultiRadioShowcase.host_DifferentApp.wlan[2].mac.dcf packetDrop:vector(packetBytes) ETV
attr interpolationmode none
attr source packetDropped
attr title "packet drops, vector(packetBytes)"
vector 144 MultiRadioShowcase.host_DifferentApp.wlan[2].mac.dcf packetDropNotAddressedToUs:vector(packetBytes) ETV
attr interpolationmode none
attr source packetDropReasonIsNotAddressedToUs(packetDropped)
attr title "packet drops: not addressed to us, vector(packetBytes)"
vector 145 MultiRadioShowcase.host_DifferentApp.wlan[2].mac packetDrop:vector(packetBytes) ETV
attr interpolationmode none
attr source packetDropped
attr title "packet drops, vector(packetBytes)"
vector 146 MultiRadioShowcase.host_DifferentApp.wlan[2].mac packetDropNotAddressedToUs:vector(packetBytes) ETV
attr interpolationmode none
attr source packetDropReasonIsNotAddressedToUs(packetDropped)
attr title "packet drops: not addressed to us, vector(packetBytes)"
vector 147 MultiRadioShowcase.host_DifferentApp.wlan[3].mac packetReceivedFromLower:vector(packetBytes) ETV
attr interpolationmode none
attr title "packets received from lower layer, vector(packetBytes)"
vector 148 MultiRadioShowcase.host_DifferentApp.wlan[3].mac.rx nav:vector ETV
attr interpolationmode linear
attr source navChanged
attr title "network allocation vector, vector"
vector 149 MultiRadioShowcase.host_DifferentApp.wlan[3].mac.dcf packetDrop:vector(packetBytes) ETV
attr interpolationmode none
attr source packetDropped
attr title "packet drops, vector(packetBytes)"
vector 150 MultiRadioShowcase.host_DifferentApp.wlan[3].mac.dcf packetDropNotAddressedToUs:vector(packetBytes) ETV
attr interpolationmode none
attr source packetDropReasonIsNotAddressedToUs(packetDropped)
attr title "packet drops: not addressed to us, vector(packetBytes)"
vector 151 MultiRadioShowcase.host_DifferentApp.wlan[3].mac packetDrop:vector(packetBytes) ETV
attr interpolationmode none
attr source packetDropped
attr title "packet drops, vector(packetBytes)"
vector 152 MultiRadioShowcase.host_DifferentApp.wlan[3].mac packetDropNotAddressedToUs:vector(packetBytes) ETV
attr interpolationmode none
attr source packetDropReasonIsNotAddressedToUs(packetDropped)
attr title "packet drops: not addressed to us, vector(packetBytes)"
vector 153 MultiRadioShowcase.host_DifferentApp.wlan[4].mac packetReceivedFromLower:vector(packetBytes) ETV
attr interpolationmode none
attr title "packets received from lower layer, vector(packetBytes)"
vector 154 MultiRadioShowcase.host_DifferentApp.wlan[4].mac.rx nav:vector ETV
attr interpolationmode linear
attr source navChanged
attr title "network allocation vector, vector"
vector 155 MultiRadioShowcase.host_DifferentApp.wlan[4].mac.dcf packetDrop:vector(packetBytes) ETV
attr interpolationmode none
attr source packetDropped
attr title "packet drops, vector(packetBytes)"
vector 156 MultiRadioShowcase.host_DifferentApp.wlan[4].mac.dcf packetDropNotAddressedToUs:vector(packetBytes) ETV
attr interpolationmode none
attr source packetDropReasonIsNotAddressedToUs(packetDropped)
attr title "packet drops: not addressed to us, vector(packetBytes)"
vector 157 MultiRadioShowcase.host_DifferentApp.wlan[4].mac packetDrop:vector(packetBytes) ETV
attr interpolationmode none
attr source packetDropped
attr title "packet drops, vector(packetBytes)"
vector 158 MultiRadioShowcase.host_DifferentApp.wlan[4].mac packetDropNotAddressedToUs:vector(packetBytes) ETV
attr interpolationmode none
attr source packetDropReasonIsNotAddressedToUs(packetDropped)
attr title "packet drops: not addressed to us, vector(packetBytes)"
vector 159 MultiRadioShowcase.host_Middle.wlan[0].mac packetReceivedFromLower:vector(packetBytes) ETV
attr interpolationmode none
attr title "packets received from lower layer, vector(packetBytes)"
vector 160 MultiRadioShowcase.host_Middle.wlan[0].mac.rx nav:vector ETV
attr interpolationmode linear
attr source navChanged
attr title "network allocation vector, vector"
vector 161 MultiRadioShowcase.host_Middle.wlan[0].mac.dcf packetDrop:vector(packetBytes) ETV
attr interpolationmode none
attr source packetDropped
attr title "packet drops, vector(packetBytes)"
vector 162 MultiRadioShowcase.host_Middle.wlan[0].mac.dcf packetDropNotAddressedToUs:vector(packetBytes) ETV
attr interpolationmode none
attr source packetDropReasonIsNotAddressedToUs(packetDropped)
attr title "packet drops: not addressed to us, vector(packetBytes)"
vector 163 MultiRadioShowcase.host_Middle.wlan[0].mac packetDrop:vector(packetBytes) ETV
attr interpolationmode none
attr source packetDropped
attr title "packet drops, vector(packetBytes)"
vector 164 MultiRadioShowcase.host_Middle.wlan[0].mac packetDropNotAddressedToUs:vector(packetBytes) ETV
attr interpolationmode none
attr source packetDropReasonIsNotAddressedToUs(packetDropped)
attr title "packet drops: not addressed to us, vector(packetBytes)"
vector 165 MultiRadioShowcase.host_Middle.wlan[1].mac packetReceivedFromLower:vector(packetBytes) ETV
attr interpolationmode none
attr title "packets received from lower layer, vector(packetBytes)"
vector 166 MultiRadioShowcase.host_Middle.wlan[1].mac.rx nav:vector ETV
attr interpolationmode linear
attr source navChanged
attr title "network allocation vector, vector"
vector 167 MultiRadioShowcase.host_Middle.wlan[1].mac.dcf packetDrop:vector(packetBytes) ETV
attr interpolationmode none
attr source packetDropped
attr title "packet drops, vector(packetBytes)"
vector 168 MultiRadioShowcase.host_Middle.wlan[1].mac.dcf packetDropNotAddressedToUs:vector(packetBytes) ETV
attr interpolationmode none
attr source packetDropReasonIsNotAddressedToUs(packetDropped)
attr title "packet drops: not addressed to us, vector(packetBytes)"
vector 169 MultiRadioShowcase.host_Middle.wlan[1].mac packetDrop:vector(packetBytes) ETV
attr interpolationmode none
attr source packetDropped
attr title "packet drops, vector(packetBytes)"
vector 170 MultiRadioShowcase.host_Middle.wlan[1].mac packetDropNotAddressedToUs:vector(packetBytes) ETV
attr interpolationmode none
attr source packetDropReasonIsNotAddressedToUs(packetDropped)
attr title "packet drops: not addressed to us, vector(packetBytes)"
vector 171 MultiRadioShowcase.host_Middle.wlan[2].mac packetReceivedFromLower:vector(packetBytes) ETV
attr interpolationmode none
attr title "packets received from lower layer, vector(packetBytes)"
vector 172 MultiRadioShowcase.host_Middle.wlan[2].mac.rx nav:vector ETV
attr interpolationmode linear
attr source navChanged
attr title "network allocation vector, vector"
vector 173 MultiRadioShowcase.host_Middle.wlan[2].mac.dcf packetDrop:vector(packetBytes) ETV
attr interpolationmode none
attr source packetDropped
attr title "packet drops, vector(packetBytes)"
vector 174 MultiRadioShowcase.host_Middle.wlan[2].mac.dcf packetDropNotAddressedToUs:vector(packetBytes) ETV
attr interpolationmode none
attr source packetDropReasonIsNotAddressedToUs(packetDropped)
attr title "packet drops: not addressed to us, vector(packetBytes)"
vector 175 MultiRadioShowcase.host_Middle.wlan[2].mac packetDrop:vector(packetBytes) ETV
attr interpolationmode none
attr source packetDropped
attr title "packet drops, vector(packetBytes)"
vector 176 MultiRadioShowcase.host_Middle.wlan[2].mac packetDropNotAddressedToUs:vector(packetBytes) ETV
attr interpolationmode none
attr source packetDropReasonIsNotAddressedToUs(packetDropped)
attr title "packet drops: not addressed to us, vector(packetBytes)"
vector 177 MultiRadioShowcase.host_Middle.wlan[3].mac packetReceivedFromLower:vector(packetBytes) ETV
attr interpolationmode none
attr title "packets received from lower layer, vector(packetBytes)"
vector 178 MultiRadioShowcase.host_Middle.wlan[3].mac.rx nav:vector ETV
attr interpolationmode linear
attr source navChanged
attr title "network allocation vector, vector"
vector 179 MultiRadioShowcase.host_Middle.wlan[3].mac.dcf packetDrop:vector(packetBytes) ETV
attr interpolationmode none
attr source packetDropped
attr title "packet drops, vector(packetBytes)"
vector 180 MultiRadioShowcase.host_Middle.wlan[3].mac.dcf packetDropNotAddressedToUs:vector(packetBytes) ETV
attr interpolationmode none
attr source packetDropReasonIsNotAddressedToUs(packetDropped)
attr title "packet drops: not addressed to us, vector(packetBytes)"
vector 181 MultiRadioShowcase.host_Middle.wlan[3].mac packetDrop:vector(packetBytes) ETV
attr interpolationmode none
attr source packetDropped
attr title "packet drops, vector(packetBytes)"
vector 182 MultiRadioShowcase.host_Middle.wlan[3].mac packetDropNotAddressedToUs:vector(packetBytes) ETV
attr interpolationmode none
attr source packetDropReasonIsNotAddressedToUs(packetDropped)
attr title "packet drops: not addressed to us, vector(packetBytes)"
vector 183 MultiRadioShowcase.host_Middle.wlan[4].mac packetReceivedFromLower:vector(packetBytes) ETV
attr interpolationmode none
attr title "packets received from lower layer, vector(packetBytes)"
vector 184 MultiRadioShowcase.host_Middle.wlan[4].mac.rx nav:vector ETV
attr interpolationmode linear
attr source navChanged
attr title "network allocation vector, vector"
vector 185 MultiRadioShowcase.host_Middle.wlan[4].mac.dcf packetDrop:vector(packetBytes) ETV
attr interpolationmode none
attr source packetDropped
attr title "packet drops, vector(packetBytes)"
vector 186 MultiRadioShowcase.host_Middle.wlan[4].mac.dcf packetDropNotAddressedToUs:vector(packetBytes) ETV
attr interpolationmode none
attr source packetDropReasonIsNotAddressedToUs(packetDropped)
attr title "packet drops: not addressed to us, vector(packetBytes)"
vector 187 MultiRadioShowcase.host_Middle.wlan[4].mac packetDrop:vector(packetBytes) ETV
attr interpolationmode none
attr source packetDropped
attr title "packet drops, vector(packetBytes)"
vector 188 MultiRadioShowcase.host_Middle.wlan[4].mac packetDropNotAddressedToUs:vector(packetBytes) ETV
attr interpolationmode none
attr source packetDropReasonIsNotAddressedToUs(packetDropped)
attr title "packet drops: not addressed to us, vector(packetBytes)"
vector 189 MultiRadioShowcase.host_DifferentApp.wlan[0].mac.dcf.channelAccess.pendingQueue packetPopped:vector(packetBytes) ETV
attr interpolationmode none
attr title "packet popped, vector(packetBytes)"
vector 190 MultiRadioShowcase.host_DifferentApp.wlan[0].mac.dcf.channelAccess.pendingQueue queueingTime:vector ETV
attr interpolationmode none
attr source queueingTime(packetPopped)
attr title "queueing times, vector"
attr unit s
vector 191 MultiRadioShowcase.host_DifferentApp.wlan[0].mac.dcf.channelAccess.inProgressFrames queueLength:vector ETV
attr interpolationmode sample-hold
attr source "count(packetEnqueued) - count(packetDequeued)"
attr title "queue length, vector"
vector 192 MultiRadioShowcase.host_DifferentApp.wlan[0].mac.dcf datarateSelected:vector ETV
attr interpolationmode none
attr title "datarates selected, vector"
vector 193 MultiRadioShowcase.host_DifferentApp.wlan[0].mac packetSentToLower:vector(packetBytes) ETV
attr interpolationmode none
attr title "packets sent to lower layer, vector(packetBytes)"
vector 194 MultiRadioShowcase.host_DifferentApp.wlan[0].mac.dcf frameSequenceActive:vector ETV
attr interpolationmode sample-hold
attr source count(frameSequenceStarted)-count(frameSequenceFinished)
attr title "frame sequence active, vector"
vector 195 MultiRadioShowcase.host_DifferentApp.wlan[0].radio transmissionState:vector ETV
attr interpolationmode sample-hold
attr source transmissionStateChanged
attr title "Radio transmission state, vector"
vector 196 MultiRadioShowcase.host_DifferentApp.wlan[0].mac.dcf packetSentToPeer:vector(packetBytes) ETV
attr interpolationmode none
attr title "packets sent, vector(packetBytes)"
vector 197 MultiRadioShowcase.host_DifferentApp.wlan[0].mac.dcf packetSentToPeerUnicast:vector(packetBytes) ETV
attr interpolationmode none
attr source ieee80211Unicast(packetSentToPeer)
attr title "packets sent: unicast, vector(packetBytes)"
vector 198 MultiRadioShowcase.host_DifferentApp.wlan[0].mac.dcf packetSentToPeerWithoutRetry:vector(packetBytes) ETV
attr interpolationmode none
attr source ieee80211NotRetry(packetSentToPeer)
attr title "packets sent: without retry, vector(packetBytes)"
vector 199 MultiRadioShowcase.host_Beginning.wlan[1].mac packetReceivedFromLower:vector(packetBytes) ETV
attr interpolationmode none
attr title "packets received from lower layer, vector(packetBytes)"
vector 200 MultiRadioShowcase.host_Beginning.wlan[1].mac.dcf packetDrop:vector(packetBytes) ETV
attr interpolationmode none
attr source packetDropped
attr title "packet drops, vector(packetBytes)"
vector 201 MultiRadioShowcase.host_Beginning.wlan[1].mac.dcf packetDropNotAddressedToUs:vector(packetBytes) ETV
attr interpolationmode none
attr source packetDropReasonIsNotAddressedToUs(packetDropped)
attr title "packet drops: not addressed to us, vector(packetBytes)"
vector 202 MultiRadioShowcase.host_Beginning.wlan[1].mac packetDrop:vector(packetBytes) ETV
attr interpolationmode none
attr source packetDropped
attr title "packet drops, vector(packetBytes)"
vector 203 MultiRadioShowcase.host_Beginning.wlan[1].mac packetDropNotAddressedToUs:vector(packetBytes) ETV
attr interpolationmode none
attr source packetDropReasonIsNotAddressedToUs(packetDropped)
attr title "packet drops: not addressed to us, vector(packetBytes)"
vector 204 MultiRadioShowcase.host_Beginning.wlan[1].mac.dcf packetSentToPeerWithRetry:vector(packetBytes) ETV
attr interpolationmode none
attr source ieee80211Retry(packetSentToPeer)
attr title "packets sent: with retry, vector(packetBytes)"
vector 205 MultiRadioShowcase.host_DifferentApp.wlan[0].mac.dcf packetSentToPeerWithRetry:vector(packetBytes) ETV
attr interpolationmode none
attr source ieee80211Retry(packetSentToPeer)
attr title "packets sent: with retry, vector(packetBytes)"
vector 206 MultiRadioShowcase.host_Beginning.wlan[1].mac.dcf.channelAccess.inProgressFrames queueingTime:vector ETV
attr interpolationmode none
attr source queueingTime(packetDequeued)
attr title "queueing times, vector"
vector 207 MultiRadioShowcase.host_Beginning.wlan[1].mac.dcf packetDropRetryLimitReached:vector(packetBytes) ETV
attr interpolationmode none
attr source packetDropReasonIsRetryLimitReached(packetDropped)
attr title "packet drops: retry limit reached, vector(packetBytes)"
vector 208 MultiRadioShowcase.host_Beginning.wlan[1].mac packetDropRetryLimitReached:vector(packetBytes) ETV
attr interpolationmode none
attr source packetDropReasonIsRetryLimitReached(packetDropped)
attr title "packet drops: retry limit reached, vector(packetBytes)"
vector 209 MultiRadioShowcase.host_DifferentApp.wlan[0].mac.dcf.channelAccess.inProgressFrames queueingTime:vector ETV
attr interpolationmode none
attr source queueingTime(packetDequeued)
attr title "queueing times, vector"
vector 210 MultiRadioShowcase.host_DifferentApp.wlan[0].mac.dcf packetDropRetryLimitReached:vector(packetBytes) ETV
attr interpolationmode none
attr source packetDropReasonIsRetryLimitReached(packetDropped)
attr title "packet drops: retry limit reached, vector(packetBytes)"
vector 211 MultiRadioShowcase.host_DifferentApp.wlan[0].mac packetDropRetryLimitReached:vector(packetBytes) ETV
attr interpolationmode none
attr source packetDropReasonIsRetryLimitReached(packetDropped)
attr title "packet drops: retry limit reached, vector(packetBytes)"
vector 212 MultiRadioShowcase.host_Beginning.wlan[3].mac packetReceivedFromUpper:vector(packetBytes) ETV
attr interpolationmode none
attr title "packets received from upper layer, vector(packetBytes)"
vector 213 MultiRadioShowcase.host_Beginning.wlan[3].mac.dcf.channelAccess.pendingQueue packetPushed:vector(packetBytes) ETV
attr interpolationmode none
attr title "packet pushed, vector(packetBytes)"
vector 214 MultiRadioShowcase.host_Beginning.wlan[3].mac.dcf.channelAccess.pendingQueue queueLength:vector ETV
attr interpolationmode sample-hold
attr source "count(packetPushed) - count(packetPopped) - count(packetRemoved) - count(packetDropped)"
attr title "queue length, vector"
vector 215 MultiRadioShowcase.host_Beginning.wlan[3].mac.dcf.channelAccess.contention backoffPeriodGenerated:vector ETV
attr interpolationmode none
attr title "backoff periods, vector"
vector 216 MultiRadioShowcase.host_Beginning.wlan[3].mac.dcf.channelAccess.contention backoffActive:vector ETV
attr interpolationmode sample-hold
attr source count(backoffStarted)-count(backoffStopped)
attr title "backoff active, vector"
vector 217 MultiRadioShowcase.host_Beginning.wlan[3].mac.dcf.channelAccess.pendingQueue packetPopped:vector(packetBytes) ETV
attr interpolationmode none
attr title "packet popped, vector(packetBytes)"
vector 218 MultiRadioShowcase.host_Beginning.wlan[3].mac.dcf.channelAccess.pendingQueue queueingTime:vector ETV
attr interpolationmode none
attr source queueingTime(packetPopped)
attr title "queueing times, vector"
attr unit s
vector 219 MultiRadioShowcase.host_Beginning.wlan[3].mac.dcf.channelAccess.inProgressFrames queueLength:vector ETV
attr interpolationmode sample-hold
attr source "count(packetEnqueued) - count(packetDequeued)"
attr title "queue length, vector"
vector 220 MultiRadioShowcase.host_Beginning.wlan[3].mac.dcf datarateSelected:vector ETV
attr interpolationmode none
attr title "datarates selected, vector"
vector 221 MultiRadioShowcase.host_Beginning.wlan[3].mac packetSentToLower:vector(packetBytes) ETV
attr interpolationmode none
attr title "packets sent to lower layer, vector(packetBytes)"
vector 222 MultiRadioShowcase.host_Beginning.wlan[3].mac.dcf frameSequenceActive:vector ETV
attr interpolationmode sample-hold
attr source count(frameSequenceStarted)-count(frameSequenceFinished)
attr title "frame sequence active, vector"
vector 223 MultiRadioShowcase.host_Beginning.wlan[3].radio transmissionState:vector ETV
attr interpolationmode sample-hold
attr source transmissionStateChanged
attr title "Radio transmission state, vector"
vector 224 MultiRadioShowcase.host_Beginning.wlan[3].mac.dcf packetSentToPeer:vector(packetBytes) ETV
attr interpolationmode none
attr title "packets sent, vector(packetBytes)"
vector 225 MultiRadioShowcase.host_Beginning.wlan[3].mac.dcf packetSentToPeerUnicast:vector(packetBytes) ETV
attr interpolationmode none
attr source ieee80211Unicast(packetSentToPeer)
attr title "packets sent: unicast, vector(packetBytes)"
vector 226 MultiRadioShowcase.host_Beginning.wlan[3].mac.dcf packetSentToPeerWithoutRetry:vector(packetBytes) ETV
attr interpolationmode none
attr source ieee80211NotRetry(packetSentToPeer)
attr title "packets sent: without retry, vector(packetBytes)"
vector 227 MultiRadioShowcase.host_Beginning.wlan[3].mac.dcf packetSentToPeerWithRetry:vector(packetBytes) ETV
attr interpolationmode none
attr source ieee80211Retry(packetSentToPeer)
attr title "packets sent: with retry, vector(packetBytes)"
vector 228 MultiRadioShowcase.host_Beginning.wlan[3].mac.dcf.channelAccess.inProgressFrames queueingTime:vector ETV
attr interpolationmode none
attr source queueingTime(packetDequeued)
attr title "queueing times, vector"
vector 229 MultiRadioShowcase.host_Beginning.wlan[3].mac.dcf packetDropRetryLimitReached:vector(packetBytes) ETV
attr interpolationmode none
attr source packetDropReasonIsRetryLimitReached(packetDropped)
attr title "packet drops: retry limit reached, vector(packetBytes)"
vector 230 MultiRadioShowcase.host_Beginning.wlan[3].mac packetDropRetryLimitReached:vector(packetBytes) ETV
attr interpolationmode none
attr source packetDropReasonIsRetryLimitReached(packetDropped)
attr title "packet drops: retry limit reached, vector(packetBytes)"
vector 231 MultiRadioShowcase.host_Beginning.wlan[2].mac packetReceivedFromUpper:vector(packetBytes) ETV
attr interpolationmode none
attr title "packets received from upper layer, vector(packetBytes)"
vector 232 MultiRadioShowcase.host_Beginning.wlan[2].mac.dcf.channelAccess.pendingQueue packetPushed:vector(packetBytes) ETV
attr interpolationmode none
attr title "packet pushed, vector(packetBytes)"
vector 233 MultiRadioShowcase.host_Beginning.wlan[2].mac.dcf.channelAccess.pendingQueue queueLength:vector ETV
attr interpolationmode sample-hold
attr source "count(packetPushed) - count(packetPopped) - count(packetRemoved) - count(packetDropped)"
attr title "queue length, vector"
vector 234 MultiRadioShowcase.host_Beginning.wlan[2].mac.dcf.channelAccess.contention backoffPeriodGenerated:vector ETV
attr interpolationmode none
attr title "backoff periods, vector"
vector 235 MultiRadioShowcase.host_Beginning.wlan[2].mac.dcf.channelAccess.contention backoffActive:vector ETV
attr interpolationmode sample-hold
attr source count(backoffStarted)-count(backoffStopped)
attr title "backoff active, vector"
vector 236 MultiRadioShowcase.host_Beginning.wlan[2].mac.dcf.channelAccess.pendingQueue packetPopped:vector(packetBytes) ETV
attr interpolationmode none
attr title "packet popped, vector(packetBytes)"
vector 237 MultiRadioShowcase.host_Beginning.wlan[2].mac.dcf.channelAccess.pendingQueue queueingTime:vector ETV
attr interpolationmode none
attr source queueingTime(packetPopped)
attr title "queueing times, vector"
attr unit s
vector 238 MultiRadioShowcase.host_Beginning.wlan[2].mac.dcf.channelAccess.inProgressFrames queueLength:vector ETV
attr interpolationmode sample-hold
attr source "count(packetEnqueued) - count(packetDequeued)"
attr title "queue length, vector"
vector 239 MultiRadioShowcase.host_Beginning.wlan[2].mac.dcf datarateSelected:vector ETV
attr interpolationmode none
attr title "datarates selected, vector"
vector 240 MultiRadioShowcase.host_Beginning.wlan[2].mac packetSentToLower:vector(packetBytes) ETV
attr interpolationmode none
attr title "packets sent to lower layer, vector(packetBytes)"
vector 241 MultiRadioShowcase.host_Beginning.wlan[2].mac.dcf frameSequenceActive:vector ETV
attr interpolationmode sample-hold
attr source count(frameSequenceStarted)-count(frameSequenceFinished)
attr title "frame sequence active, vector"
vector 242 MultiRadioShowcase.host_Beginning.wlan[2].radio transmissionState:vector ETV
attr interpolationmode sample-hold
attr source transmissionStateChanged
attr title "Radio transmission state, vector"
vector 243 MultiRadioShowcase.host_Beginning.wlan[2].mac.dcf packetSentToPeer:vector(packetBytes) ETV
attr interpolationmode none
attr title "packets sent, vector(packetBytes)"
vector 244 MultiRadioShowcase.host_Beginning.wlan[2].mac.dcf packetSentToPeerUnicast:vector(packetBytes) ETV
attr interpolationmode none
attr source ieee80211Unicast(packetSentToPeer)
attr title "packets sent: unicast, vector(packetBytes)"
vector 245 MultiRadioShowcase.host_Beginning.wlan[2].mac.dcf packetSentToPeerWithoutRetry:vector(packetBytes) ETV
attr interpolationmode none
attr source ieee80211NotRetry(packetSentToPeer)
attr title "packets sent: without retry, vector(packetBytes)"
vector 246 MultiRadioShowcase.host_Beginning.wlan[2].mac.dcf packetSentToPeerWithRetry:vector(packetBytes) ETV
attr interpolationmode none
attr source ieee80211Retry(packetSentToPeer)
attr title "packets sent: with retry, vector(packetBytes)"
vector 247 MultiRadioShowcase.host_Beginning.wlan[2].mac.dcf.channelAccess.inProgressFrames queueingTime:vector ETV
attr interpolationmode none
attr source queueingTime(packetDequeued)
attr title "queueing times, vector"
vector 248 MultiRadioShowcase.host_Beginning.wlan[2].mac.dcf packetDropRetryLimitReached:vector(packetBytes) ETV
attr interpolationmode none
attr source packetDropReasonIsRetryLimitReached(packetDropped)
attr title "packet drops: retry limit reached, vector(packetBytes)"
vector 249 MultiRadioShowcase.host_Beginning.wlan[2].mac packetDropRetryLimitReached:vector(packetBytes) ETV
attr interpolationmode none
attr source packetDropReasonIsRetryLimitReached(packetDropped)
attr title "packet drops: retry limit reached, vector(packetBytes)"
vector 250 MultiRadioShowcase.host_Beginning.wlan[0].mac packetReceivedFromUpper:vector(packetBytes) ETV
attr interpolationmode none
attr title "packets received from upper layer, vector(packetBytes)"
vector 251 MultiRadioShowcase.host_Beginning.wlan[0].mac.dcf.channelAccess.pendingQueue packetPushed:vector(packetBytes) ETV
attr interpolationmode none
attr title "packet pushed, vector(packetBytes)"
vector 252 MultiRadioShowcase.host_Beginning.wlan[0].mac.dcf.channelAccess.pendingQueue queueLength:vector ETV
attr interpolationmode sample-hold
attr source "count(packetPushed) - count(packetPopped) - count(packetRemoved) - count(packetDropped)"
attr title "queue length, vector"
vector 253 MultiRadioShowcase.host_Beginning.wlan[0].mac.dcf.channelAccess.contention backoffPeriodGenerated:vector ETV
attr interpolationmode none
attr title "backoff periods, vector"
vector 254 MultiRadioShowcase.host_Beginning.wlan[0].mac.dcf.channelAccess.contention backoffActive:vector ETV
attr interpolationmode sample-hold
attr source count(backoffStarted)-count(backoffStopped)
attr title "backoff active, vector"
vector 255 MultiRadioShowcase.host_Beginning.wlan[0].mac.dcf.channelAccess.pendingQueue packetPopped:vector(packetBytes) ETV
attr interpolationmode none
attr title "packet popped, vector(packetBytes)"
vector 256 MultiRadioShowcase.host_Beginning.wlan[0].mac.dcf.channelAccess.pendingQueue queueingTime:vector ETV
attr interpolationmode none
attr source queueingTime(packetPopped)
attr title "queueing times, vector"
attr unit s
vector 257 MultiRadioShowcase.host_Beginning.wlan[0].mac.dcf.channelAccess.inProgressFrames queueLength:vector ETV
attr interpolationmode sample-hold
attr source "count(packetEnqueued) - count(packetDequeued)"
attr title "queue length, vector"
vector 258 MultiRadioShowcase.host_Beginning.wlan[0].mac.dcf datarateSelected:vector ETV
attr interpolationmode none
attr title "datarates selected, vector"
vector 259 MultiRadioShowcase.host_Beginning.wlan[0].mac packetSentToLower:vector(packetBytes) ETV
attr interpolationmode none
attr title "packets sent to lower layer, vector(packetBytes)"
vector 260 MultiRadioShowcase.host_Beginning.wlan[0].mac.dcf frameSequenceActive:vector ETV
attr interpolationmode sample-hold
attr source count(frameSequenceStarted)-count(frameSequenceFinished)
attr title "frame sequence active, vector"
vector 261 MultiRadioShowcase.host_Beginning.wlan[0].radio transmissionState:vector ETV
attr interpolationmode sample-hold
attr source transmissionStateChanged
attr title "Radio transmission state, vector"
vector 262 MultiRadioShowcase.host_Beginning.wlan[0].mac.dcf packetSentToPeer:vector(packetBytes) ETV
attr interpolationmode none
attr title "packets sent, vector(packetBytes)"
vector 263 MultiRadioShowcase.host_Beginning.wlan[0].mac.dcf packetSentToPeerUnicast:vector(packetBytes) ETV
attr interpolationmode none
attr source ieee80211Unicast(packetSentToPeer)
attr title "packets sent: unicast, vector(packetBytes)"
vector 264 MultiRadioShowcase.host_Beginning.wlan[0].mac.dcf packetSentToPeerWithoutRetry:vector(packetBytes) ETV
attr interpolationmode none
attr source ieee80211NotRetry(packetSentToPeer)
attr title "packets sent: without retry, vector(packetBytes)"
vector 265 MultiRadioShowcase.host_Beginning.wlan[0].mac.dcf packetSentToPeerWithRetry:vector(packetBytes) ETV
attr interpolationmode none
attr source ieee80211Retry(packetSentToPeer)
attr title "packets sent: with retry, vector(packetBytes)"
vector 266 MultiRadioShowcase.host_Beginning.wlan[0].mac.dcf.channelAccess.inProgressFrames queueingTime:vector ETV
attr interpolationmode none
attr source queueingTime(packetDequeued)
attr title "queueing times, vector"
vector 267 MultiRadioShowcase.host_Beginning.wlan[0].mac.dcf packetDropRetryLimitReached:vector(packetBytes) ETV
attr interpolationmode none
attr source packetDropReasonIsRetryLimitReached(packetDropped)
attr title "packet drops: retry limit reached, vector(packetBytes)"
vector 268 MultiRadioShowcase.host_Beginning.wlan[0].mac packetDropRetryLimitReached:vector(packetBytes) ETV
attr interpolationmode none
attr source packetDropReasonIsRetryLimitReached(packetDropped)
attr title "packet drops: retry limit reached, vector(packetBytes)"
vector 269 MultiRadioShowcase.host_DifferentApp.wlan[4].mac packetReceivedFromUpper:vector(packetBytes) ETV
attr interpolationmode none
attr title "packets received from upper layer, vector(packetBytes)"
vector 270 MultiRadioShowcase.host_DifferentApp.wlan[4].mac.dcf.channelAccess.pendingQueue packetPushed:vector(packetBytes) ETV
attr interpolationmode none
attr title "packet pushed, vector(packetBytes)"
vector 271 MultiRadioShowcase.host_DifferentApp.wlan[4].mac.dcf.channelAccess.pendingQueue queueLength:vector ETV
attr interpolationmode sample-hold
attr source "count(packetPushed) - count(packetPopped) - count(packetRemoved) - count(packetDropped)"
attr title "queue length, vector"
vector 272 MultiRadioShowcase.host_DifferentApp.wlan[4].mac.dcf.channelAccess.contention backoffPeriodGenerated:vector ETV
attr interpolationmode none
attr title "backoff periods, vector"
vector 273 MultiRadioShowcase.host_DifferentApp.wlan[4].mac.dcf.channelAccess.contention backoffActive:vector ETV
attr interpolationmode sample-hold
attr source count(backoffStarted)-count(backoffStopped)
attr title "backoff active, vector"
vector 274 MultiRadioShowcase.host_DifferentApp.wlan[4].mac.dcf.channelAccess.pendingQueue packetPopped:vector(packetBytes) ETV
attr interpolationmode none
attr title "packet popped, vector(packetBytes)"
vector 275 MultiRadioShowcase.host_DifferentApp.wlan[4].mac.dcf.channelAccess.pendingQueue queueingTime:vector ETV
attr interpolationmode none
attr source queueingTime(packetPopped)
attr title "queueing times, vector"
attr unit s
vector 276 MultiRadioShowcase.host_DifferentApp.wlan[4].mac.dcf.channelAccess.inProgressFrames queueLength:vector ETV
attr interpolationmode sample-hold
attr source "count(packetEnqueued) - count(packetDequeued)"
attr title "queue length, vector"
vector 277 MultiRadioShowcase.host_DifferentApp.wlan[4].mac.dcf datarateSelected:vector ETV
attr interpolationmode none
attr title "datarates selected, vector"
vector 278 MultiRadioShowcase.host_DifferentApp.wlan[4].mac packetSentToLower:vector(packetBytes) ETV
attr interpolationmode none
attr title "packets sent to lower layer, vector(packetBytes)"
vector 279 MultiRadioShowcase.host_DifferentApp.wlan[4].mac.dcf frameSequenceActive:vector ETV
attr interpolationmode sample-hold
attr source count(frameSequenceStarted)-count(frameSequenceFinished)
attr title "frame sequence active, vector"
vector 280 MultiRadioShowcase.host_DifferentApp.wlan[4].radio transmissionState:vector ETV
attr interpolationmode sample-hold
attr source transmissionStateChanged
attr title "Radio transmission state, vector"
vector 281 MultiRadioShowcase.host_DifferentApp.wlan[4].mac.dcf packetSentToPeer:vector(packetBytes) ETV
attr interpolationmode none
attr title "packets sent, vector(packetBytes)"
vector 282 MultiRadioShowcase.host_DifferentApp.wlan[4].mac.dcf packetSentToPeerUnicast:vector(packetBytes) ETV
attr interpolationmode none
attr source ieee80211Unicast(packetSentToPeer)
attr title "packets sent: unicast, vector(packetBytes)"
vector 283 MultiRadioShowcase.host_DifferentApp.wlan[4].mac.dcf packetSentToPeerWithoutRetry:vector(packetBytes) ETV
attr interpolationmode none
attr source ieee80211NotRetry(packetSentToPeer)
attr title "packets sent: without retry, vector(packetBytes)"
vector 284 MultiRadioShowcase.host_DifferentApp.wlan[4].mac.dcf packetSentToPeerWithRetry:vector(packetBytes) ETV
attr interpolationmode none
attr source ieee80211Retry(packetSentToPeer)
attr title "packets sent: with retry, vector(packetBytes)"
vector 285 MultiRadioShowcase.host_DifferentApp.wlan[4].mac.dcf.channelAccess.inProgressFrames queueingTime:vector ETV
attr interpolationmode none
attr source queueingTime(packetDequeued)
attr title "queueing times, vector"
vector 286 MultiRadioShowcase.host_DifferentApp.wlan[4].mac.dcf packetDropRetryLimitReached:vector(packetBytes) ETV
attr interpolationmode none
attr source packetDropReasonIsRetryLimitReached(packetDropped)
attr title "packet drops: retry limit reached, vector(packetBytes)"
vector 287 MultiRadioShowcase.host_DifferentApp.wlan[4].mac packetDropRetryLimitReached:vector(packetBytes) ETV
attr interpolationmode none
attr source packetDropReasonIsRetryLimitReached(packetDropped)
attr title "packet drops: retry limit reached, vector(packetBytes)"
vector 288 MultiRadioShowcase.host_DifferentApp.wlan[2].mac packetReceivedFromUpper:vector(packetBytes) ETV
attr interpolationmode none
attr title "packets received from upper layer, vector(packetBytes)"
vector 289 MultiRadioShowcase.host_DifferentApp.wlan[2].mac.dcf.channelAccess.pendingQueue packetPushed:vector(packetBytes) ETV
attr interpolationmode none
attr title "packet pushed, vector(packetBytes)"
vector 290 MultiRadioShowcase.host_DifferentApp.wlan[2].mac.dcf.channelAccess.pendingQueue queueLength:vector ETV
attr interpolationmode sample-hold
attr source "count(packetPushed) - count(packetPopped) - count(packetRemoved) - count(packetDropped)"
attr title "queue length, vector"
vector 291 MultiRadioShowcase.host_DifferentApp.wlan[2].mac.dcf.channelAccess.contention backoffPeriodGenerated:vector ETV
attr interpolationmode none
attr title "backoff periods, vector"
vector 292 MultiRadioShowcase.host_DifferentApp.wlan[2].mac.dcf.channelAccess.contention backoffActive:vector ETV
attr interpolationmode sample-hold
attr source count(backoffStarted)-count(backoffStopped)
attr title "backoff active, vector"
vector 293 MultiRadioShowcase.host_DifferentApp.wlan[2].mac.dcf.channelAccess.pendingQueue packetPopped:vector(packetBytes) ETV
attr interpolationmode none
attr title "packet popped, vector(packetBytes)"
vector 294 MultiRadioShowcase.host_DifferentApp.wlan[2].mac.dcf.channelAccess.pendingQueue queueingTime:vector ETV
attr interpolationmode none
attr source queueingTime(packetPopped)
attr title "queueing times, vector"
attr unit s
vector 295 MultiRadioShowcase.host_DifferentApp.wlan[2].mac.dcf.channelAccess.inProgressFrames queueLength:vector ETV
attr interpolationmode sample-hold
attr source "count(packetEnqueued) - count(packetDequeued)"
attr title "queue length, vector"
vector 296 MultiRadioShowcase.host_DifferentApp.wlan[2].mac.dcf datarateSelected:vector ETV
attr interpolationmode none
attr title "datarates selected, vector"
vector 297 MultiRadioShowcase.host_DifferentApp.wlan[2].mac packetSentToLower:vector(packetBytes) ETV
attr interpolationmode none
attr title "packets sent to lower layer, vector(packetBytes)"
vector 298 MultiRadioShowcase.host_DifferentApp.wlan[2].mac.dcf frameSequenceActive:vector ETV
attr interpolationmode sample-hold
attr source count(frameSequenceStarted)-count(frameSequenceFinished)
attr title "frame sequence active, vector"
vector 299 MultiRadioShowcase.host_DifferentApp.wlan[2].radio transmissionState:vector ETV
attr interpolationmode sample-hold
attr source transmissionStateChanged
attr title "Radio transmission state, vector"
vector 300 MultiRadioShowcase.host_DifferentApp.wlan[2].mac.dcf packetSentToPeer:vector(packetBytes) ETV
attr interpolationmode none
attr title "packets sent, vector(packetBytes)"
vector 301 MultiRadioShowcase.host_DifferentApp.wlan[2].mac.dcf packetSentToPeerUnicast:vector(packetBytes) ETV
attr interpolationmode none
attr source ieee80211Unicast(packetSentToPeer)
attr title "packets sent: unicast, vector(packetBytes)"
vector 302 MultiRadioShowcase.host_DifferentApp.wlan[2].mac.dcf packetSentToPeerWithoutRetry:vector(packetBytes) ETV
attr interpolationmode none
attr source ieee80211NotRetry(packetSentToPeer)
attr title "packets sent: without retry, vector(packetBytes)"
vector 303 MultiRadioShowcase.host_DifferentApp.wlan[2].mac.dcf packetSentToPeerWithRetry:vector(packetBytes) ETV
attr interpolationmode none
attr source ieee80211Retry(packetSentToPeer)
attr title "packets sent: with retry, vector(packetBytes)"
vector 304 MultiRadioShowcase.host_DifferentApp.wlan[2].mac.dcf.channelAccess.inProgressFrames queueingTime:vector ETV
attr interpolationmode none
attr source queueingTime(packetDequeued)
attr title "queueing times, vector"
vector 305 MultiRadioShowcase.host_DifferentApp.wlan[2].mac.dcf packetDropRetryLimitReached:vector(packetBytes) ETV
attr interpolationmode none
attr source packetDropReasonIsRetryLimitReached(packetDropped)
attr title "packet drops: retry limit reached, vector(packetBytes)"
vector 306 MultiRadioShowcase.host_DifferentApp.wlan[2].mac packetDropRetryLimitReached:vector(packetBytes) ETV
attr interpolationmode none
attr source packetDropReasonIsRetryLimitReached(packetDropped)
attr title "packet drops: retry limit reached, vector(packetBytes)"
vector 307 MultiRadioShowcase.host_Beginning.wlan[4].mac packetReceivedFromUpper:vector(packetBytes) ETV
attr interpolationmode none
attr title "packets received from upper layer, vector(packetBytes)"
vector 308 MultiRadioShowcase.host_Beginning.wlan[4].mac.dcf.channelAccess.pendingQueue packetPushed:vector(packetBytes) ETV
attr interpolationmode none
attr title "packet pushed, vector(packetBytes)"
vector 309 MultiRadioShowcase.host_Beginning.wlan[4].mac.dcf.channelAccess.pendingQueue queueLength:vector ETV
attr interpolationmode sample-hold
attr source "count(packetPushed) - count(packetPopped) - count(packetRemoved) - count(packetDropped)"
attr title "queue length, vector"
vector 310 MultiRadioShowcase.host_Beginning.wlan[4].mac.dcf.channelAccess.contention backoffPeriodGenerated:vector ETV
attr interpolationmode none
attr title "backoff periods, vector"
vector 311 MultiRadioShowcase.host_Beginning.wlan[4].mac.dcf.channelAccess.contention backoffActive:vector ETV
attr interpolationmode sample-hold
attr source count(backoffStarted)-count(backoffStopped)
attr title "backoff active, vector"
vector 312 MultiRadioShowcase.host_Beginning.wlan[4].mac.dcf.channelAccess.pendingQueue packetPopped:vector(packetBytes) ETV
attr interpolationmode none
attr title "packet popped, vector(packetBytes)"
vector 313 MultiRadioShowcase.host_Beginning.wlan[4].mac.dcf.channelAccess.pendingQueue queueingTime:vector ETV
attr interpolationmode none
attr source queueingTime(packetPopped)
attr title "queueing times, vector"
attr unit s
vector 314 MultiRadioShowcase.host_Beginning.wlan[4].mac.dcf.channelAccess.inProgressFrames queueLength:vector ETV
attr interpolationmode sample-hold
attr source "count(packetEnqueued) - count(packetDequeued)"
attr title "queue length, vector"
vector 315 MultiRadioShowcase.host_Beginning.wlan[4].mac.dcf datarateSelected:vector ETV
attr interpolationmode none
attr title "datarates selected, vector"
vector 316 MultiRadioShowcase.host_Beginning.wlan[4].mac packetSentToLower:vector(packetBytes) ETV
attr interpolationmode none
attr title "packets sent to lower layer, vector(packetBytes)"
vector 317 MultiRadioShowcase.host_Beginning.wlan[4].mac.dcf frameSequenceActive:vector ETV
attr interpolationmode sample-hold
attr source count(frameSequenceStarted)-count(frameSequenceFinished)
attr title "frame sequence active, vector"
vector 318 MultiRadioShowcase.host_Beginning.wlan[4].radio transmissionState:vector ETV
attr interpolationmode sample-hold
attr source transmissionStateChanged
attr title "Radio transmission state, vector"
vector 319 MultiRadioShowcase.host_Beginning.wlan[4].mac.dcf packetSentToPeer:vector(packetBytes) ETV
attr interpolationmode none
attr title "packets sent, vector(packetBytes)"
vector 320 MultiRadioShowcase.host_Beginning.wlan[4].mac.dcf packetSentToPeerUnicast:vector(packetBytes) ETV
attr interpolationmode none
attr source ieee80211Unicast(packetSentToPeer)
attr title "packets sent: unicast, vector(packetBytes)"
vector 321 MultiRadioShowcase.host_Beginning.wlan[4].mac.dcf packetSentToPeerWithoutRetry:vector(packetBytes) ETV
attr interpolationmode none
attr source ieee80211NotRetry(packetSentToPeer)
attr title "packets sent: without retry, vector(packetBytes)"
vector 322 MultiRadioShowcase.host_Beginning.wlan[4].mac.dcf packetSentToPeerWithRetry:vector(packetBytes) ETV
attr interpolationmode none
attr source ieee80211Retry(packetSentToPeer)
attr title "packets sent: with retry, vector(packetBytes)"
vector 323 MultiRadioShowcase.host_Beginning.wlan[4].mac.dcf.channelAccess.inProgressFrames queueingTime:vector ETV
attr interpolationmode none
attr source queueingTime(packetDequeued)
attr title "queueing times, vector"
vector 324 MultiRadioShowcase.host_Beginning.wlan[4].mac.dcf packetDropRetryLimitReached:vector(packetBytes) ETV
attr interpolationmode none
attr source packetDropReasonIsRetryLimitReached(packetDropped)
attr title "packet drops: retry limit reached, vector(packetBytes)"
vector 325 MultiRadioShowcase.host_Beginning.wlan[4].mac packetDropRetryLimitReached:vector(packetBytes) ETV
attr interpolationmode none
attr source packetDropReasonIsRetryLimitReached(packetDropped)
attr title "packet drops: retry limit reached, vector(packetBytes)"
vector 326 MultiRadioShowcase.host_DifferentApp.wlan[1].mac packetReceivedFromUpper:vector(packetBytes) ETV
attr interpolationmode none
attr title "packets received from upper layer, vector(packetBytes)"
vector 327 MultiRadioShowcase.host_DifferentApp.wlan[1].mac.dcf.channelAccess.pendingQueue packetPushed:vector(packetBytes) ETV
attr interpolationmode none
attr title "packet pushed, vector(packetBytes)"
vector 328 MultiRadioShowcase.host_DifferentApp.wlan[1].mac.dcf.channelAccess.pendingQueue queueLength:vector ETV
attr interpolationmode sample-hold
attr source "count(packetPushed) - count(packetPopped) - count(packetRemoved) - count(packetDropped)"
attr title "queue length, vector"
vector 329 MultiRadioShowcase.host_DifferentApp.wlan[1].mac.dcf.channelAccess.contention backoffPeriodGenerated:vector ETV
attr interpolationmode none
attr title "backoff periods, vector"
vector 330 MultiRadioShowcase.host_DifferentApp.wlan[1].mac.dcf.channelAccess.contention backoffActive:vector ETV
attr interpolationmode sample-hold
attr source count(backoffStarted)-count(backoffStopped)
attr title "backoff active, vector"
vector 331 MultiRadioShowcase.host_DifferentApp.wlan[1].mac.dcf.channelAccess.pendingQueue packetPopped:vector(packetBytes) ETV
attr interpolationmode none
attr title "packet popped, vector(packetBytes)"
vector 332 MultiRadioShowcase.host_DifferentApp.wlan[1].mac.dcf.channelAccess.pendingQueue queueingTime:vector ETV
attr interpolationmode none
attr source queueingTime(packetPopped)
attr title "queueing times, vector"
attr unit s
vector 333 MultiRadioShowcase.host_DifferentApp.wlan[1].mac.dcf.channelAccess.inProgressFrames queueLength:vector ETV
attr interpolationmode sample-hold
attr source "count(packetEnqueued) - count(packetDequeued)"
attr title "queue length, vector"
vector 334 MultiRadioShowcase.host_DifferentApp.wlan[1].mac.dcf datarateSelected:vector ETV
attr interpolationmode none
attr title "datarates selected, vector"
vector 335 MultiRadioShowcase.host_DifferentApp.wlan[1].mac packetSentToLower:vector(packetBytes) ETV
attr interpolationmode none
attr title "packets sent to lower layer, vector(packetBytes)"
vector 336 MultiRadioShowcase.host_DifferentApp.wlan[1].mac.dcf frameSequenceActive:vector ETV
attr interpolationmode sample-hold
attr source count(frameSequenceStarted)-count(frameSequenceFinished)
attr title "frame sequence active, vector"
vector 337 MultiRadioShowcase.host_DifferentApp.wlan[1].radio transmissionState:vector ETV
attr interpolationmode sample-hold
attr source transmissionStateChanged
attr title "Radio transmission state, vector"
vector 338 MultiRadioShowcase.host_DifferentApp.wlan[1].mac.dcf packetSentToPeer:vector(packetBytes) ETV
attr interpolationmode none
attr title "packets sent, vector(packetBytes)"
vector 339 MultiRadioShowcase.host_DifferentApp.wlan[1].mac.dcf packetSentToPeerUnicast:vector(packetBytes) ETV
attr interpolationmode none
attr source ieee80211Unicast(packetSentToPeer)
attr title "packets sent: unicast, vector(packetBytes)"
vector 340 MultiRadioShowcase.host_DifferentApp.wlan[1].mac.dcf packetSentToPeerWithoutRetry:vector(packetBytes) ETV
attr interpolationmode none
attr source ieee80211NotRetry(packetSentToPeer)
attr title "packets sent: without retry, vector(packetBytes)"
vector 341 MultiRadioShowcase.host_DifferentApp.wlan[1].mac.dcf packetSentToPeerWithRetry:vector(packetBytes) ETV
attr interpolationmode none
attr source ieee80211Retry(packetSentToPeer)
attr title "packets sent: with retry, vector(packetBytes)"
vector 342 MultiRadioShowcase.host_DifferentApp.wlan[1].mac.dcf.channelAccess.inProgressFrames queueingTime:vector ETV
attr interpolationmode none
attr source queueingTime(packetDequeued)
attr title "queueing times, vector"
vector 343 MultiRadioShowcase.host_DifferentApp.wlan[1].mac.dcf packetDropRetryLimitReached:vector(packetBytes) ETV
attr interpolationmode none
attr source packetDropReasonIsRetryLimitReached(packetDropped)
attr title "packet drops: retry limit reached, vector(packetBytes)"
vector 344 MultiRadioShowcase.host_DifferentApp.wlan[1].mac packetDropRetryLimitReached:vector(packetBytes) ETV
attr interpolationmode none
attr source packetDropReasonIsRetryLimitReached(packetDropped)
attr title "packet drops: retry limit reached, vector(packetBytes)"
vector 345 MultiRadioShowcase.host_DifferentApp.wlan[3].mac packetReceivedFromUpper:vector(packetBytes) ETV
attr interpolationmode none
attr title "packets received from upper layer, vector(packetBytes)"
vector 346 MultiRadioShowcase.host_DifferentApp.wlan[3].mac.dcf.channelAccess.pendingQueue packetPushed:vector(packetBytes) ETV
attr interpolationmode none
attr title "packet pushed, vector(packetBytes)"
vector 347 MultiRadioShowcase.host_DifferentApp.wlan[3].mac.dcf.channelAccess.pendingQueue queueLength:vector ETV
attr interpolationmode sample-hold
attr source "count(packetPushed) - count(packetPopped) - count(packetRemoved) - count(packetDropped)"
attr title "queue length, vector"
vector 348 MultiRadioShowcase.host_DifferentApp.wlan[3].mac.dcf.channelAccess.contention backoffPeriodGenerated:vector ETV
attr interpolationmode none
attr title "backoff periods, vector"
vector 349 MultiRadioShowcase.host_DifferentApp.wlan[3].mac.dcf.channelAccess.contention backoffActive:vector ETV
attr interpolationmode sample-hold
attr source count(backoffStarted)-count(backoffStopped)
attr title "backoff active, vector"
vector 350 MultiRadioShowcase.host_DifferentApp.wlan[3].mac.dcf.channelAccess.pendingQueue packetPopped:vector(packetBytes) ETV
attr interpolationmode none
attr title "packet popped, vector(packetBytes)"
vector 351 MultiRadioShowcase.host_DifferentApp.wlan[3].mac.dcf.channelAccess.pendingQueue queueingTime:vector ETV
attr interpolationmode none
attr source queueingTime(packetPopped)
attr title "queueing times, vector"
attr unit s
vector 352 MultiRadioShowcase.host_DifferentApp.wlan[3].mac.dcf.channelAccess.inProgressFrames queueLength:vector ETV
attr interpolationmode sample-hold
attr source "count(packetEnqueued) - count(packetDequeued)"
attr title "queue length, vector"
vector 353 MultiRadioShowcase.host_DifferentApp.wlan[3].mac.dcf datarateSelected:vector ETV
attr interpolationmode none
attr title "datarates selected, vector"
vector 354 MultiRadioShowcase.host_DifferentApp.wlan[3].mac packetSentToLower:vector(packetBytes) ETV
attr interpolationmode none
attr title "packets sent to lower layer, vector(packetBytes)"
vector 355 MultiRadioShowcase.host_DifferentApp.wlan[3].mac.dcf frameSequenceActive:vector ETV
attr interpolationmode sample-hold
attr source count(frameSequenceStarted)-count(frameSequenceFinished)
attr title "frame sequence active, vector"
vector 356 MultiRadioShowcase.host_DifferentApp.wlan[3].radio transmissionState:vector ETV
attr interpolationmode sample-hold
attr source transmissionStateChanged
attr title "Radio transmission state, vector"
vector 357 MultiRadioShowcase.host_DifferentApp.wlan[3].mac.dcf packetSentToPeer:vector(packetBytes) ETV
attr interpolationmode none
attr title "packets sent, vector(packetBytes)"
vector 358 MultiRadioShowcase.host_DifferentApp.wlan[3].mac.dcf packetSentToPeerUnicast:vector(packetBytes) ETV
attr interpolationmode none
attr source ieee80211Unicast(packetSentToPeer)
attr title "packets sent: unicast, vector(packetBytes)"
vector 359 MultiRadioShowcase.host_DifferentApp.wlan[3].mac.dcf packetSentToPeerWithoutRetry:vector(packetBytes) ETV
attr interpolationmode none
attr source ieee80211NotRetry(packetSentToPeer)
attr title "packets sent: without retry, vector(packetBytes)"
vector 360 MultiRadioShowcase.host_DifferentApp.wlan[3].mac.dcf packetSentToPeerWithRetry:vector(packetBytes) ETV
attr interpolationmode none
attr source ieee80211Retry(packetSentToPeer)
attr title "packets sent: with retry, vector(packetBytes)"
vector 361 MultiRadioShowcase.host_DifferentApp.wlan[3].mac.dcf.channelAccess.inProgressFrames queueingTime:vector ETV
attr interpolationmode none
attr source queueingTime(packetDequeued)
attr title "queueing times, vector"
vector 362 MultiRadioShowcase.host_DifferentApp.wlan[3].mac.dcf packetDropRetryLimitReached:vector(packetBytes) ETV
attr interpolationmode none
attr source packetDropReasonIsRetryLimitReached(packetDropped)
attr title "packet drops: retry limit reached, vector(packetBytes)"
vector 363 MultiRadioShowcase.host_DifferentApp.wlan[3].mac packetDropRetryLimitReached:vector(packetBytes) ETV
attr interpolationmode none
attr source packetDropReasonIsRetryLimitReached(packetDropped)
attr title "packet drops: retry limit reached, vector(packetBytes)"
vector 364 MultiRadioShowcase.host_Beginning.app[0] throughput:vector ETV
attr source throughput(packetReceived)
attr title "throughput, vector"
attr unit bps
vector 365 MultiRadioShowcase.host_Middle.app[0] throughput:vector ETV
attr source throughput(packetReceived)
attr title "throughput, vector"
attr unit bps
vector 366 MultiRadioShowcase.host_End.app[0] throughput:vector ETV
attr source throughput(packetReceived)
attr title "throughput, vector"
attr unit bps
vector 367 MultiRadioShowcase.host_DifferentApp.app[0] throughput:vector ETV
attr source throughput(packetReceived)
attr title "throughput, vector"
attr unit bps
0	0	0	0
0	0	0	0
0	0	0	2
0	2665	0.591918007564	3
0	2691	0.592300007564	2
0	2739	0.593494007564	3
0	2765	0.593876007564	2
0	2813	0.594530007564	3
0	2839	0.594912007564	2
0	2887	0.595686007564	3
0	2913	0.596068007564	2
0	2961	0.598722007564	3
0	2987	0.599104007564	2
0	3035	0.601758007564	3
0	3061	0.602140007564	2
0	3115	0.620874007564	3
[...]
336	16061	2.734540694776	0
336	16444	2.7988370745	1
336	16516	2.7992740745	0
336	16519	2.8193730745	1
336	16591	2.8198100745	0
336	16593	2.8282690745	1
336	16665	2.8287060745	0
336	16669	2.8414850745	1
336	16741	2.8419220745	0
336	16744	2.8553210745	1
336	16816	2.8557580745	0
336	16819	2.8682570745	1
336	16891	2.8686940745	0
336	16893	2.8784930745	1
336	16966	2.8789300745	0
336	21744	3.732906102091	1
336	21816	3.733343102091	0
336	21819	3.751082102091	1
336	21891	3.751519102091	0
336	21894	3.766858102091	1
336	21966	3.767295102091	0
336	21968	3.773774102091	1
336	22040	3.774211102091	0
336	22044	3.786710102091	1
336	22116	3.787147102091	0
336	22118	3.789006102091	1
336	22190	3.789443102091	0
336	22192	3.796302102091	1
336	22264	3.796739102091	0
336	25454	5.060060143236	1
336	25526	5.060497143236	0
336	25529	5.079556143236	1
336	25601	5.079993143236	0
336	25604	5.096672143236	1
336	25676	5.097109143236	0
336	25679	5.111448143236	1
336	25751	5.111885143236	0
336	25754	5.126564143236	1
336	25826	5.127001143236	0
336	25829	5.145680143236	1
336	25901	5.146117143236	0
336	25903	5.151776143236	1
336	25975	5.152213143236	0
336	26514	5.287871673371	1
336	26586	5.288308673371	0
336	26589	5.301287673371	1
336	26661	5.301724673371	0
336	26664	5.321123673371	1
336	26736	5.321560673371	0
336	26739	5.333059673371	1
336	26811	5.333496673371	0
336	26814	5.346595673371	1
336	26886	5.347032673371	0
336	26889	5.357411673371	1
336	26961	5.357848673371	0
336	26963	5.363007673371	1
336	27035	5.363444673371	0
337	12735	2.273046442462	1
337	12736	2.273046442462	2
337	12756	2.273428442462	1
337	12761	2.273428442462	0
337	12809	2.274102442462	1
337	12810	2.274102442462	2
337	12830	2.274484442462	1
337	12835	2.274484442462	0
337	12883	2.274998442462	1
337	12884	2.274998442462	2
337	12904	2.275380442462	1
337	12909	2.275380442462	0
337	12957	2.277674442462	1
337	12958	2.277674442462	2
337	12978	2.278056442462	1
337	12983	2.278056442462	0
337	13031	2.278650442462	1
337	13032	2.278650442462	2
337	13052	2.279032442462	1
337	13057	2.279032442462	0
337	13109	2.288406442462	1
337	13110	2.288406442462	2
337	13130	2.288788442462	1
337	13135	2.288788442462	0
337	13185	2.308002442462	1
337	13186	2.308002442462	2
337	13206	2.308384442462	1
337	13211	2.308384442462	0
337	15385	2.685914974276	1
337	15386	2.685914974276	2
337	15406	2.686296974276	1
337	15411	2.686296974276	0
337	15459	2.687330974276	1
337	15460	2.687330974276	2
337	15480	2.687712974276	1
337	15485	2.687712974276	0
337	15533	2.687866974276	1
337	15534	2.687866974276	2
337	15554	2.688248974276	1
337	15559	2.688248974276	0
337	15607	2.693022974276	1
337	15608	2.693022974276	2
337	15628	2.693404974276	1
337	15633	2.693404974276	0
337	15687	2.697578974276	1
337	15688	2.697578974276	2
337	15709	2.697960974276	1
337	15714	2.697960974276	0
337	15840	2.718971334526	1
337	15841	2.718971334526	2
337	15861	2.719353334526	1
337	15866	2.719353334526	0
337	15990	2.734103694776	1
337	15991	2.734103694776	2
337	16011	2.734485694776	1
337	16016	2.734485694776	0
337	16445	2.7988370745	1
337	16446	2.7988370745	2
337	16466	2.7992190745	1
337	16471	2.7992190745	0
337	16520	2.8193730745	1
337	16521	2.8193730745	2
337	16541	2.8197550745	1
337	16546	2.8197550745	0
337	16594	2.8282690745	1
337	16595	2.8282690745	2
337	16615	2.8286510745	1
337	16620	2.8286510745	0
337	16670	2.8414850745	1
337	16671	2.8414850745	2
337	16691	2.8418670745	1
337	16696	2.8418670745	0
337	16745	2.8553210745	1
337	16746	2.8553210745	2
337	16766	2.8557030745	1
337	16771	2.8557030745	0
337	16820	2.8682570745	1
337	16821	2.8682570745	2
337	16841	2.8686390745	1
337	16846	2.8686390745	0
337	16894	2.8784930745	1
337	16895	2.8784930745	2
337	16916	2.8788750745	1
337	16921	2.8788750745	0
337	21745	3.732906102091	1
337	21746	3.732906102091	2
337	21766	3.733288102091	1
337	21771	3.733288102091	0
337	21820	3.751082102091	1
337	21821	3.751082102091	2
337	21841	3.751464102091	1
337	21846	3.751464102091	0
337	21895	3.766858102091	1
337	21896	3.766858102091	2
337	21916	3.767240102091	1
337	21921	3.767240102091	0
337	21969	3.773774102091	1
337	21970	3.773774102091	2
337	21990	3.774156102091	1
337	21995	3.774156102091	0
337	22045	3.786710102091	1
337	22046	3.786710102091	2
337	22066	3.787092102091	1
337	22071	3.787092102091	0
337	22119	3.789006102091	1
337	22120	3.789006102091	2
337	22140	3.789388102091	1
337	22145	3.789388102091	0
337	22193	3.796302102091	1
337	22194	3.796302102091	2
337	22214	3.796684102091	1
337	22219	3.796684102091	0
337	25455	5.060060143236	1
337	25456	5.060060143236	2
337	25476	5.060442143236	1
337	25481	5.060442143236	0
337	25530	5.079556143236	1
337	25531	5.079556143236	2
337	25551	5.079938143236	1
337	25556	5.079938143236	0
337	25605	5.096672143236	1
337	25606	5.096672143236	2
337	25626	5.097054143236	1
337	25631	5.097054143236	0
337	25680	5.111448143236	1
337	25681	5.111448143236	2
337	25701	5.111830143236	1
337	25706	5.111830143236	0
337	25755	5.126564143236	1
337	25756	5.126564143236	2
337	25776	5.126946143236	1
337	25781	5.126946143236	0
337	25830	5.145680143236	1
337	25831	5.145680143236	2
337	25851	5.146062143236	1
337	25856	5.146062143236	0
337	25904	5.151776143236	1
337	25905	5.151776143236	2
337	25925	5.152158143236	1
337	25930	5.152158143236	0
337	26515	5.287871673371	1
337	26516	5.287871673371	2
337	26536	5.288253673371	1
337	26541	5.288253673371	0
337	26590	5.301287673371	1
337	26591	5.301287673371	2
337	26611	5.301669673371	1
337	26616	5.301669673371	0
337	26665	5.321123673371	1
337	26666	5.321123673371	2
337	26686	5.321505673371	1
337	26691	5.321505673371	0
337	26740	5.333059673371	1
337	26741	5.333059673371	2
337	26761	5.333441673371	1
337	26766	5.333441673371	0
337	26815	5.346595673371	1
337	26816	5.346595673371	2
337	26836	5.346977673371	1
337	26841	5.346977673371	0
337	26890	5.357411673371	1
337	26891	5.357411673371	2
337	26911	5.357793673371	1
337	26916	5.357793673371	0
337	26964	5.363007673371	1
337	26965	5.363007673371	2
337	26985	5.363389673371	1
337	26990	5.363389673371	0
338	12756	2.273428442462	1064
338	12830	2.274484442462	1064
338	12904	2.275380442462	1064
338	12978	2.278056442462	1064
338	13052	2.279032442462	1064
338	13130	2.288788442462	1064
338	13206	2.308384442462	1064
338	15406	2.686296974276	1064
338	15480	2.687712974276	1064
338	15554	2.688248974276	1064
338	15628	2.693404974276	1064
338	15709	2.697960974276	1064
338	15861	2.719353334526	1064
338	16011	2.734485694776	1064
338	16466	2.7992190745	1064
338	16541	2.8197550745	1064
338	16615	2.8286510745	1064
338	16691	2.8418670745	1064
338	16766	2.8557030745	1064
338	16841	2.8686390745	1064
338	16916	2.8788750745	1064
338	21766	3.733288102091	1064
338	21841	3.751464102091	1064
338	21916	3.767240102091	1064
338	21990	3.774156102091	1064
338	22066	3.787092102091	1064
338	22140	3.789388102091	1064
338	22214	3.796684102091	1064
338	25476	5.060442143236	1064
338	25551	5.079938143236	1064
338	25626	5.097054143236	1064
338	25701	5.111830143236	1064
338	25776	5.126946143236	1064
338	25851	5.146062143236	1064
338	25925	5.152158143236	1064
338	26536	5.288253673371	1064
338	26611	5.301669673371	1064
338	26686	5.321505673371	1064
338	26761	5.333441673371	1064
338	26836	5.346977673371	1064
338	26911	5.357793673371	1064
338	26985	5.363389673371	1064
339	12756	2.273428442462	1064
339	12830	2.274484442462	1064
339	12904	2.275380442462	1064
339	12978	2.278056442462	1064
339	13052	2.279032442462	1064
339	13130	2.288788442462	1064
339	13206	2.308384442462	1064
339	15406	2.686296974276	1064
339	15480	2.687712974276	1064
339	15554	2.688248974276	1064
339	15628	2.693404974276	1064
339	15709	2.697960974276	1064
339	15861	2.719353334526	1064
339	16011	2.734485694776	1064
339	16466	2.7992190745	1064
339	16541	2.8197550745	1064
339	16615	2.8286510745	1064
339	16691	2.8418670745	1064
339	16766	2.8557030745	1064
339	16841	2.8686390745	1064
339	16916	2.8788750745	1064
339	21766	3.733288102091	1064
339	21841	3.751464102091	1064
339	21916	3.767240102091	1064
339	21990	3.774156102091	1064
339	22066	3.787092102091	1064
339	22140	3.789388102091	1064
339	22214	3.796684102091	1064
339	25476	5.060442143236	1064
339	25551	5.079938143236	1064
339	25626	5.097054143236	1064
339	25701	5.111830143236	1064
339	25776	5.126946143236	1064
339	25851	5.146062143236	1064
339	25925	5.152158143236	1064
339	26536	5.288253673371	1064
339	26611	5.301669673371	1064
339	26686	5.321505673371	1064
339	26761	5.333441673371	1064
339	26836	5.346977673371	1064
339	26911	5.357793673371	1064
339	26985	5.363389673371	1064
340	12756	2.273428442462	1064
340	15406	2.686296974276	1064
340	16466	2.7992190745	1064
340	21766	3.733288102091	1064
340	25476	5.060442143236	1064
340	26536	5.288253673371	1064
341	12830	2.274484442462	1064
341	12904	2.275380442462	1064
341	12978	2.278056442462	1064
341	13052	2.279032442462	1064
341	13130	2.288788442462	1064
341	13206	2.308384442462	1064
341	15480	2.687712974276	1064
341	15554	2.688248974276	1064
341	15628	2.693404974276	1064
341	15709	2.697960974276	1064
341	15861	2.719353334526	1064
341	16011	2.734485694776	1064
341	16541	2.8197550745	1064
341	16615	2.8286510745	1064
341	16691	2.8418670745	1064
341	16766	2.8557030745	1064
341	16841	2.8686390745	1064
341	16916	2.8788750745	1064
341	21841	3.751464102091	1064
341	21916	3.767240102091	1064
341	21990	3.774156102091	1064
341	22066	3.787092102091	1064
341	22140	3.789388102091	1064
341	22214	3.796684102091	1064
341	25551	5.079938143236	1064
341	25626	5.097054143236	1064
341	25701	5.111830143236	1064
341	25776	5.126946143236	1064
341	25851	5.146062143236	1064
341	25925	5.152158143236	1064
341	26611	5.301669673371	1064
341	26686	5.321505673371	1064
341	26761	5.333441673371	1064
341	26836	5.346977673371	1064
341	26911	5.357793673371	1064
341	26985	5.363389673371	1064
342	13256	2.308439442462	0.035393
342	16061	2.734540694776	0.0486257205
342	16966	2.8789300745	0.080093
342	22264	3.796739102091	0.063833
342	25975	5.152213143236	0.092153
342	27035	5.363444673371	0.075573
343	13256	2.308439442462	1064
343	16061	2.734540694776	1064
343	16966	2.8789300745	1064
343	22264	3.796739102091	1064
343	25975	5.152213143236	1064
343	27035	5.363444673371	1064
344	13256	2.308439442462	1064
344	16061	2.734540694776	1064
344	16966	2.8789300745	1064
344	22264	3.796739102091	1064
344	25975	5.152213143236	1064
344	27035	5.363444673371	1064
345	17502	3.191342164927	1036
345	22505	4.310721220471	1036
346	17502	3.191342164927	1064
346	22505	4.310721220471	1064
347	17502	3.191342164927	1
347	17504	3.191342164927	0
347	22505	4.310721220471	1
347	22507	4.310721220471	0
348	17502	3.191342164927	3
348	17576	3.191779164927	35
348	17650	3.192955164927	39
348	17724	3.194211164927	137
348	17798	3.197427164927	73
348	17872	3.199363164927	297
348	17949	3.205779164927	919
348	22505	4.310721220471	11
348	22579	4.311158220471	19
348	22654	4.312014220471	49
348	22728	4.313470220471	41
348	22802	4.314766220471	93
348	22876	4.317102220471	174
348	22951	4.321058220471	405
349	17502	3.191342164927	1
349	17503	3.191342164927	0
349	17576	3.191779164927	1
349	17577	3.192518164927	0
349	17650	3.192955164927	1
349	17651	3.193774164927	0
349	17724	3.194211164927	1
349	17725	3.196990164927	0
349	17798	3.197427164927	1
349	17799	3.198926164927	0
349	17872	3.199363164927	1
349	17876	3.205342164927	0
349	17949	3.205779164927	1
349	17953	3.224198164927	0
349	22505	4.310721220471	1
349	22506	4.310721220471	0
349	22579	4.311158220471	1
349	22581	4.311577220471	0
349	22654	4.312014220471	1
349	22655	4.313033220471	0
349	22728	4.313470220471	1
349	22729	4.314329220471	0
349	22802	4.314766220471	1
349	22803	4.316665220471	0
349	22876	4.317102220471	1
349	22878	4.320621220471	0
349	22951	4.321058220471	1
349	22957	4.329197220471	0
350	17504	3.191342164927	1064
350	22507	4.310721220471	1064
351	17504	3.191342164927	0
351	22507	4.310721220471	0
352	17504	3.191342164927	1
352	18026	3.224635164927	0
352	22507	4.310721220471	1
352	23030	4.329634220471	0
353	17504	3.191342164927	24000000
353	17578	3.192518164927	24000000
353	17652	3.193774164927	24000000
353	17726	3.196990164927	24000000
353	17800	3.198926164927	24000000
353	17877	3.205342164927	24000000
353	17954	3.224198164927	24000000
353	22507	4.310721220471	24000000
353	22582	4.311577220471	24000000
353	22656	4.313033220471	24000000
353	22730	4.314329220471	24000000
353	22804	4.316665220471	24000000
353	22879	4.320621220471	24000000
353	22958	4.329197220471	24000000
354	17504	3.191342164927	1064
354	17578	3.192518164927	1064
354	17652	3.193774164927	1064
354	17726	3.196990164927	1064
354	17800	3.198926164927	1064
354	17877	3.205342164927	1064
354	17954	3.224198164927	1064
354	22507	4.310721220471	1064
354	22582	4.311577220471	1064
354	22656	4.313033220471	1064
354	22730	4.314329220471	1064
354	22804	4.316665220471	1064
354	22879	4.320621220471	1064
354	22958	4.329197220471	1064
355	17504	3.191342164927	1
355	17576	3.191779164927	0
355	17578	3.192518164927	1
355	17650	3.192955164927	0
355	17652	3.193774164927	1
355	17724	3.194211164927	0
355	17726	3.196990164927	1
355	17798	3.197427164927	0
355	17800	3.198926164927	1
355	17872	3.199363164927	0
355	17877	3.205342164927	1
355	17949	3.205779164927	0
355	17954	3.224198164927	1
355	18026	3.224635164927	0
355	22507	4.310721220471	1
355	22579	4.311158220471	0
355	22582	4.311577220471	1
355	22654	4.312014220471	0
355	22656	4.313033220471	1
355	22728	4.313470220471	0
355	22730	4.314329220471	1
355	22802	4.314766220471	0
355	22804	4.316665220471	1
355	22876	4.317102220471	0
355	22879	4.320621220471	1
355	22951	4.321058220471	0
355	22958	4.329197220471	1
355	23030	4.329634220471	0
356	17505	3.191342164927	1
356	17506	3.191342164927	2
356	17526	3.191724164927	1
356	17531	3.191724164927	0
356	17579	3.192518164927	1
356	17580	3.192518164927	2
356	17600	3.192900164927	1
356	17605	3.192900164927	0
356	17653	3.193774164927	1
356	17654	3.193774164927	2
356	17674	3.194156164927	1
356	17679	3.194156164927	0
356	17727	3.196990164927	1
356	17728	3.196990164927	2
356	17748	3.197372164927	1
356	17753	3.197372164927	0
356	17801	3.198926164927	1
356	17802	3.198926164927	2
356	17822	3.199308164927	1
356	17827	3.199308164927	0
356	17878	3.205342164927	1
356	17879	3.205342164927	2
356	17899	3.205724164927	1
356	17904	3.205724164927	0
356	17955	3.224198164927	1
356	17956	3.224198164927	2
356	17976	3.224580164927	1
356	17981	3.224580164927	0
356	22508	4.310721220471	1
356	22509	4.310721220471	2
356	22529	4.311103220471	1
356	22534	4.311103220471	0
356	22583	4.311577220471	1
356	22584	4.311577220471	2
356	22604	4.311959220471	1
356	22609	4.311959220471	0
356	22657	4.313033220471	1
356	22658	4.313033220471	2
356	22678	4.313415220471	1
356	22683	4.313415220471	0
356	22731	4.314329220471	1
356	22732	4.314329220471	2
356	22752	4.314711220471	1
356	22757	4.314711220471	0
356	22805	4.316665220471	1
356	22806	4.316665220471	2
356	22826	4.317047220471	1
356	22831	4.317047220471	0
356	22880	4.320621220471	1
356	22881	4.320621220471	2
356	22901	4.321003220471	1
356	22906	4.321003220471	0
356	22959	4.329197220471	1
356	22960	4.329197220471	2
356	22980	4.329579220471	1
356	22985	4.329579220471	0
357	17526	3.191724164927	1064
357	17600	3.192900164927	1064
357	17674	3.194156164927	1064
357	17748	3.197372164927	1064
357	17822	3.199308164927	1064
357	17899	3.205724164927	1064
357	17976	3.224580164927	1064
357	22529	4.311103220471	1064
357	22604	4.311959220471	1064
357	22678	4.313415220471	1064
357	22752	4.314711220471	1064
357	22826	4.317047220471	1064
357	22901	4.321003220471	1064
357	22980	4.329579220471	1064
358	17526	3.191724164927	1064
358	17600	3.192900164927	1064
358	17674	3.194156164927	1064
358	17748	3.197372164927	1064
358	17822	3.199308164927	1064
358	17899	3.205724164927	1064
358	17976	3.224580164927	1064
358	22529	4.311103220471	1064
358	22604	4.311959220471	1064
358	22678	4.313415220471	1064
358	22752	4.314711220471	1064
358	22826	4.317047220471	1064
358	22901	4.321003220471	1064
358	22980	4.329579220471	1064
359	17526	3.191724164927	1064
359	22529	4.311103220471	1064
360	17600	3.192900164927	1064
360	17674	3.194156164927	1064
360	17748	3.197372164927	1064
360	17822	3.199308164927	1064
360	17899	3.205724164927	1064
360	17976	3.224580164927	1064
360	22604	4.311959220471	1064
360	22678	4.313415220471	1064
360	22752	4.314711220471	1064
360	22826	4.317047220471	1064
360	22901	4.321003220471	1064
360	22980	4.329579220471	1064
361	18026	3.224635164927	0.033293
361	23030	4.329634220471	0.018913
362	18026	3.224635164927	1064
362	23030	4.329634220471	1064
363	18026	3.224635164927	1064
363	23030	4.329634220471	1064
364	27492	0.1	0
364	27492	0.2	0
364	27492	0.3	0
364	27492	0.4	0
364	27492	0.5	0
364	27492	0.6	0
364	27492	0.7	0
364	27492	0.8	0
364	27492	0.9	0
364	27492	1	0
364	27492	1.1	0
364	27492	1.2	0
364	27492	1.3	0
364	27492	1.4	0
364	27492	1.5	0
364	27492	1.6	0
364	27492	1.7	0
364	27492	1.8	0
364	27492	1.9	0
364	27492	2	0
364	27492	2.1	0
364	27492	2.2	0
364	27492	2.3	0
364	27492	2.4	0
364	27492	2.5	0
364	27492	2.6	0
364	27492	2.7	0
364	27492	2.8	0
364	27492	2.9	0
364	27492	3	0
364	27492	3.1	0
364	27492	3.2	0
364	27492	3.3	0
364	27492	3.4	0
364	27492	3.5	0
364	27492	3.6	0
364	27492	3.7	0
364	27492	3.8	0
364	27492	3.9	0
364	27492	4	0
364	27492	4.1	0
364	27492	4.2	0
364	27492	4.3	0
364	27492	4.4	0
364	27492	4.5	0
364	27492	4.6	0
364	27492	4.7	0
364	27492	4.8	0
364	27492	4.9	0
364	27492	5	0
364	27492	5.1	0
364	27492	5.2	0
364	27492	5.3	0
364	27492	5.4	0
364	27492	5.5	0
365	27492	0.1	0
365	27492	0.2	0
365	27492	0.3	0
365	27492	0.4	0
365	27492	0.5	0
365	27492	0.6	0
365	27492	0.7	0
365	27492	0.8	0
365	27492	0.9	0
365	27492	1	0
365	27492	1.1	0
365	27492	1.2	0
365	27492	1.3	0
365	27492	1.4	0
365	27492	1.5	0
365	27492	1.6	0
365	27492	1.7	0
365	27492	1.8	0
365	27492	1.9	0
365	27492	2	0
365	27492	2.1	0
365	27492	2.2	0
365	27492	2.3	0
365	27492	2.4	0
365	27492	2.5	0
365	27492	2.6	0
365	27492	2.7	0
365	27492	2.8	0
365	27492	2.9	0
365	27492	3	0
365	27492	3.1	0
365	27492	3.2	0
365	27492	3.3	0
365	27492	3.4	0
365	27492	3.5	0
365	27492	3.6	0
365	27492	3.7	0
365	27492	3.8	0
365	27492	3.9	0
365	27492	4	0
365	27492	4.1	0
365	27492	4.2	0
365	27492	4.3	0
365	27492	4.4	0
365	27492	4.5	0
365	27492	4.6	0
365	27492	4.7	0
365	27492	4.8	0
365	27492	4.9	0
365	27492	5	0
365	27492	5.1	0
365	27492	5.2	0
365	27492	5.3	0
365	27492	5.4	0
365	27492	5.5	0
366	27492	0.1	0
366	27492	0.2	0
366	27492	0.3	0
366	27492	0.4	0
366	27492	0.5	0
366	27492	0.6	0
366	27492	0.7	0
366	27492	0.8	0
366	27492	0.9	0
366	27492	1	0
366	27492	1.1	0
366	27492	1.2	0
366	27492	1.3	0
366	27492	1.4	0
366	27492	1.5	0
366	27492	1.6	0
366	27492	1.7	0
366	27492	1.8	0
366	27492	1.9	0
366	27492	2	0
366	27492	2.1	0
366	27492	2.2	0
366	27492	2.3	0
366	27492	2.4	0
366	27492	2.5	0
366	27492	2.6	0
366	27492	2.7	0
366	27492	2.8	0
366	27492	2.9	0
366	27492	3	0
366	27492	3.1	0
366	27492	3.2	0
366	27492	3.3	0
366	27492	3.4	0
366	27492	3.5	0
366	27492	3.6	0
366	27492	3.7	0
366	27492	3.8	0
366	27492	3.9	0
366	27492	4	0
366	27492	4.1	0
366	27492	4.2	0
366	27492	4.3	0
366	27492	4.4	0
366	27492	4.5	0
366	27492	4.6	0
366	27492	4.7	0
366	27492	4.8	0
366	27492	4.9	0
366	27492	5	0
366	27492	5.1	0
366	27492	5.2	0
366	27492	5.3	0
366	27492	5.4	0
366	27492	5.5	0
367	27492	0.1	0
367	27492	0.2	0
367	27492	0.3	0
367	27492	0.4	0
367	27492	0.5	0
367	27492	0.6	0
367	27492	0.7	0
367	27492	0.8	0
367	27492	0.9	0
367	27492	1	0
367	27492	1.1	0
367	27492	1.2	0
367	27492	1.3	0
367	27492	1.4	0
367	27492	1.5	0
367	27492	1.6	0
367	27492	1.7	0
367	27492	1.8	0
367	27492	1.9	0
367	27492	2	0
367	27492	2.1	0
367	27492	2.2	0
367	27492	2.3	0
367	27492	2.4	0
367	27492	2.5	0
367	27492	2.6	0
367	27492	2.7	0
367	27492	2.8	0
367	27492	2.9	0
367	27492	3	0
367	27492	3.1	0
367	27492	3.2	0
367	27492	3.3	0
367	27492	3.4	0
367	27492	3.5	0
367	27492	3.6	0
367	27492	3.7	0
367	27492	3.8	0
367	27492	3.9	0
367	27492	4	0
367	27492	4.1	0
367	27492	4.2	0
367	27492	4.3	0
367	27492	4.4	0
367	27492	4.5	0
367	27492	4.6	0
367	27492	4.7	0
367	27492	4.8	0
367	27492	4.9	0
367	27492	5	0
367	27492	5.1	0
367	27492	5.2	0
367	27492	5.3	0
367	27492	5.4	0
367	27492	5.5	0

