file 134663 1653823804                                          
version 2
run General-0-20220529-04:28:28-4563
attr configname General
attr datetime 20220529-04:28:28
attr experiment General
attr inifile omnetpp.ini
attr iterationvars ""
attr iterationvarsf ""
attr measurement ""
attr network MultiRadioShowcase
attr processid 4563
attr repetition 0
attr replication #0
attr resultdir results
attr runnumber 0
attr seedset 0
param *.configurator.config "xml(\"<config><interface hosts='**' address='10.0.0.x' netmask='255.255.255.0'/><autoroute metric='errorRate'/></config>\")"
param *.configurator.optimizeRoutes false
param *.host*.ipv4.routingTable.netmaskRoutes "\"\""
param *.host*.numWlanInterfaces 5
param *.host*.numApps 1
param *.host*.wlan[*].radio.displayCommunicationRange true
param *.host*.app[*].localPort 100
param *.host*.app[*].destPort 100
param *.host*.app[*].messageLength 1000B
param *.host*.app[*].startTime exponential(100us)
param *.host*.app[*].sendInterval exponential(12ms)
param *.host_Beginning.app[0].typename "\"UdpBasicApp\""
param *.host_Beginning.app[0].destAddresses "\"host_End\""
param *.host_End.app[0].typename "\"UdpSink\""
param *.host_DifferentApp.app[0].typename "\"UdpBasicApp\""
param *.host_DifferentApp.app[0].destAddresses "\"host_End\""
param *.host_Middle.app[*].typename "\"UdpBasicApp\""
param *.host*.typename "\"AodvRouter\""
param **.numMediumVisualizers 4
param **.displaySignals true
param *.visualizer.interfaceTableVisualizer[0].displayInterfaceTables true
param *.visualizer.interfaceTableVisualizer[0].placementHint "\"top\""
param *.visualizer.ieee80211Visualizer[0].displayAssociations true
param *.visualizer.physicalLinkVisualizer[*].displayLinks true
param *.visualizer.dataLinkVisualizer[*].displayLinks true
param *.visualizer.networkRouteVisualizer[*].displayRoutes true
param *.visualizer.*LinkVisualizer[*].lineShift 0
param *.visualizer.networkRouteVisualizer[*].lineShift 0
param *.visualizer.networkRouteVisualizer[*].packetFilter "\"UDPData*\""
param **.arp.typename "\"GlobalArp\""

vector 0 MultiRadioShowcase.host_Beginning.wlan[0].radio radioMode:vector ETV
attr interpolationmode sample-hold
attr source radioModeChanged
attr title "Radio mode, vector"
vector 1 MultiRadioShowcase.host_Beginning.wlan[0].radio radioChannel:vector ETV
attr interpolationmode sample-hold
attr source radioChannelChanged
attr title "Radio channel, vector"
vector 2 MultiRadioShowcase.host_Beginning.wlan[1].radio radioMode:vector ETV
attr interpolationmode sample-hold
attr source radioModeChanged
attr title "Radio mode, vector"
vector 3 MultiRadioShowcase.host_Beginning.wlan[1].radio radioChannel:vector ETV
attr interpolationmode sample-hold
attr source radioChannelChanged
attr title "Radio channel, vector"
vector 4 MultiRadioShowcase.host_Beginning.wlan[2].radio radioMode:vector ETV
attr interpolationmode sample-hold
attr source radioModeChanged
attr title "Radio mode, vector"
vector 5 MultiRadioShowcase.host_Beginning.wlan[2].radio radioChannel:vector ETV
attr interpolationmode sample-hold
attr source radioChannelChanged
attr title "Radio channel, vector"
vector 6 MultiRadioShowcase.host_Beginning.wlan[3].radio radioMode:vector ETV
attr interpolationmode sample-hold
attr source radioModeChanged
attr title "Radio mode, vector"
vector 7 MultiRadioShowcase.host_Beginning.wlan[3].radio radioChannel:vector ETV
attr interpolationmode sample-hold
attr source radioChannelChanged
attr title "Radio channel, vector"
vector 8 MultiRadioShowcase.host_Beginning.wlan[4].radio radioMode:vector ETV
attr interpolationmode sample-hold
attr source radioModeChanged
attr title "Radio mode, vector"
vector 9 MultiRadioShowcase.host_Beginning.wlan[4].radio radioChannel:vector ETV
attr interpolationmode sample-hold
attr source radioChannelChanged
attr title "Radio channel, vector"
vector 10 MultiRadioShowcase.host_Middle.wlan[0].radio radioMode:vector ETV
attr interpolationmode sample-hold
attr source radioModeChanged
attr title "Radio mode, vector"
vector 11 MultiRadioShowcase.host_Middle.wlan[0].radio radioChannel:vector ETV
attr interpolationmode sample-hold
attr source radioChannelChanged
attr title "Radio channel, vector"
vector 12 MultiRadioShowcase.host_Middle.wlan[1].radio radioMode:vector ETV
attr interpolationmode sample-hold
attr source radioModeChanged
attr title "Radio mode, vector"
vector 13 MultiRadioShowcase.host_Middle.wlan[1].radio radioChannel:vector ETV
attr interpolationmode sample-hold
attr source radioChannelChanged
attr title "Radio channel, vector"
vector 14 MultiRadioShowcase.host_Middle.wlan[2].radio radioMode:vector ETV
attr interpolationmode sample-hold
attr source radioModeChanged
attr title "Radio mode, vector"
vector 15 MultiRadioShowcase.host_Middle.wlan[2].radio radioChannel:vector ETV
attr interpolationmode sample-hold
attr source radioChannelChanged
attr title "Radio channel, vector"
vector 16 MultiRadioShowcase.host_Middle.wlan[3].radio radioMode:vector ETV
attr interpolationmode sample-hold
attr source radioModeChanged
attr title "Radio mode, vector"
vector 17 MultiRadioShowcase.host_Middle.wlan[3].radio radioChannel:vector ETV
attr interpolationmode sample-hold
attr source radioChannelChanged
attr title "Radio channel, vector"
vector 18 MultiRadioShowcase.host_Middle.wlan[4].radio radioMode:vector ETV
attr interpolationmode sample-hold
attr source radioModeChanged
attr title "Radio mode, vector"
vector 19 MultiRadioShowcase.host_Middle.wlan[4].radio radioChannel:vector ETV
attr interpolationmode sample-hold
attr source radioChannelChanged
attr title "Radio channel, vector"
vector 20 MultiRadioShowcase.host_End.wlan[0].radio radioMode:vector ETV
attr interpolationmode sample-hold
attr source radioModeChanged
attr title "Radio mode, vector"
vector 21 MultiRadioShowcase.host_End.wlan[0].radio radioChannel:vector ETV
attr interpolationmode sample-hold
attr source radioChannelChanged
attr title "Radio channel, vector"
vector 22 MultiRadioShowcase.host_End.wlan[1].radio radioMode:vector ETV
attr interpolationmode sample-hold
attr source radioModeChanged
attr title "Radio mode, vector"
vector 23 MultiRadioShowcase.host_End.wlan[1].radio radioChannel:vector ETV
attr interpolationmode sample-hold
attr source radioChannelChanged
attr title "Radio channel, vector"
vector 24 MultiRadioShowcase.host_End.wlan[2].radio radioMode:vector ETV
attr interpolationmode sample-hold
attr source radioModeChanged
attr title "Radio mode, vector"
vector 25 MultiRadioShowcase.host_End.wlan[2].radio radioChannel:vector ETV
attr interpolationmode sample-hold
attr source radioChannelChanged
attr title "Radio channel, vector"
vector 26 MultiRadioShowcase.host_End.wlan[3].radio radioMode:vector ETV
attr interpolationmode sample-hold
attr source radioModeChanged
attr title "Radio mode, vector"
vector 27 MultiRadioShowcase.host_End.wlan[3].radio radioChannel:vector ETV
attr interpolationmode sample-hold
attr source radioChannelChanged
attr title "Radio channel, vector"
vector 28 MultiRadioShowcase.host_End.wlan[4].radio radioMode:vector ETV
attr interpolationmode sample-hold
attr source radioModeChanged
attr title "Radio mode, vector"
vector 29 MultiRadioShowcase.host_End.wlan[4].radio radioChannel:vector ETV
attr interpolationmode sample-hold
attr source radioChannelChanged
attr title "Radio channel, vector"
vector 30 MultiRadioShowcase.host_DifferentApp.wlan[0].radio radioMode:vector ETV
attr interpolationmode sample-hold
attr source radioModeChanged
attr title "Radio mode, vector"
vector 31 MultiRadioShowcase.host_DifferentApp.wlan[0].radio radioChannel:vector ETV
attr interpolationmode sample-hold
attr source radioChannelChanged
attr title "Radio channel, vector"
vector 32 MultiRadioShowcase.host_DifferentApp.wlan[1].radio radioMode:vector ETV
attr interpolationmode sample-hold
attr source radioModeChanged
attr title "Radio mode, vector"
vector 33 MultiRadioShowcase.host_DifferentApp.wlan[1].radio radioChannel:vector ETV
attr interpolationmode sample-hold
attr source radioChannelChanged
attr title "Radio channel, vector"
vector 34 MultiRadioShowcase.host_DifferentApp.wlan[2].radio radioMode:vector ETV
attr interpolationmode sample-hold
attr source radioModeChanged
attr title "Radio mode, vector"
vector 35 MultiRadioShowcase.host_DifferentApp.wlan[2].radio radioChannel:vector ETV
attr interpolationmode sample-hold
attr source radioChannelChanged
attr title "Radio channel, vector"
vector 36 MultiRadioShowcase.host_DifferentApp.wlan[3].radio radioMode:vector ETV
attr interpolationmode sample-hold
attr source radioModeChanged
attr title "Radio mode, vector"
vector 37 MultiRadioShowcase.host_DifferentApp.wlan[3].radio radioChannel:vector ETV
attr interpolationmode sample-hold
attr source radioChannelChanged
attr title "Radio channel, vector"
vector 38 MultiRadioShowcase.host_DifferentApp.wlan[4].radio radioMode:vector ETV
attr interpolationmode sample-hold
attr source radioModeChanged
attr title "Radio mode, vector"
vector 39 MultiRadioShowcase.host_DifferentApp.wlan[4].radio radioChannel:vector ETV
attr interpolationmode sample-hold
attr source radioChannelChanged
attr title "Radio channel, vector"
vector 40 MultiRadioShowcase.host_Beginning.wlan[0].radio receptionState:vector ETV
attr interpolationmode sample-hold
attr source receptionStateChanged
attr title "Radio reception state, vector"
vector 41 MultiRadioShowcase.host_Beginning.wlan[1].radio receptionState:vector ETV
attr interpolationmode sample-hold
attr source receptionStateChanged
attr title "Radio reception state, vector"
vector 42 MultiRadioShowcase.host_Beginning.wlan[2].radio receptionState:vector ETV
attr interpolationmode sample-hold
attr source receptionStateChanged
attr title "Radio reception state, vector"
vector 43 MultiRadioShowcase.host_Beginning.wlan[3].radio receptionState:vector ETV
attr interpolationmode sample-hold
attr source receptionStateChanged
attr title "Radio reception state, vector"
vector 44 MultiRadioShowcase.host_Beginning.wlan[4].radio receptionState:vector ETV
attr interpolationmode sample-hold
attr source receptionStateChanged
attr title "Radio reception state, vector"
vector 45 MultiRadioShowcase.host_Middle.wlan[0].radio receptionState:vector ETV
attr interpolationmode sample-hold
attr source receptionStateChanged
attr title "Radio reception state, vector"
vector 46 MultiRadioShowcase.host_Middle.wlan[1].radio receptionState:vector ETV
attr interpolationmode sample-hold
attr source receptionStateChanged
attr title "Radio reception state, vector"
vector 47 MultiRadioShowcase.host_Middle.wlan[2].radio receptionState:vector ETV
attr interpolationmode sample-hold
attr source receptionStateChanged
attr title "Radio reception state, vector"
vector 48 MultiRadioShowcase.host_Middle.wlan[3].radio receptionState:vector ETV
attr interpolationmode sample-hold
attr source receptionStateChanged
attr title "Radio reception state, vector"
vector 49 MultiRadioShowcase.host_Middle.wlan[4].radio receptionState:vector ETV
attr interpolationmode sample-hold
attr source receptionStateChanged
attr title "Radio reception state, vector"
vector 50 MultiRadioShowcase.host_End.wlan[0].radio receptionState:vector ETV
attr interpolationmode sample-hold
attr source receptionStateChanged
attr title "Radio reception state, vector"
vector 51 MultiRadioShowcase.host_End.wlan[1].radio receptionState:vector ETV
attr interpolationmode sample-hold
attr source receptionStateChanged
attr title "Radio reception state, vector"
vector 52 MultiRadioShowcase.host_End.wlan[2].radio receptionState:vector ETV
attr interpolationmode sample-hold
attr source receptionStateChanged
attr title "Radio reception state, vector"
vector 53 MultiRadioShowcase.host_End.wlan[3].radio receptionState:vector ETV
attr interpolationmode sample-hold
attr source receptionStateChanged
attr title "Radio reception state, vector"
vector 54 MultiRadioShowcase.host_End.wlan[4].radio receptionState:vector ETV
attr interpolationmode sample-hold
attr source receptionStateChanged
attr title "Radio reception state, vector"
vector 55 MultiRadioShowcase.host_DifferentApp.wlan[0].radio receptionState:vector ETV
attr interpolationmode sample-hold
attr source receptionStateChanged
attr title "Radio reception state, vector"
vector 56 MultiRadioShowcase.host_DifferentApp.wlan[1].radio receptionState:vector ETV
attr interpolationmode sample-hold
attr source receptionStateChanged
attr title "Radio reception state, vector"
vector 57 MultiRadioShowcase.host_DifferentApp.wlan[2].radio receptionState:vector ETV
attr interpolationmode sample-hold
attr source receptionStateChanged
attr title "Radio reception state, vector"
vector 58 MultiRadioShowcase.host_DifferentApp.wlan[3].radio receptionState:vector ETV
attr interpolationmode sample-hold
attr source receptionStateChanged
attr title "Radio reception state, vector"
vector 59 MultiRadioShowcase.host_DifferentApp.wlan[4].radio receptionState:vector ETV
attr interpolationmode sample-hold
attr source receptionStateChanged
attr title "Radio reception state, vector"
vector 60 MultiRadioShowcase.host_Beginning.wlan[0].mac.dcf.recoveryProcedure contentionWindowChanged:vector ETV
attr interpolationmode sample-hold
attr title "contention window, vector"
vector 61 MultiRadioShowcase.host_Beginning.wlan[1].mac.dcf.recoveryProcedure contentionWindowChanged:vector ETV
attr interpolationmode sample-hold
attr title "contention window, vector"
vector 62 MultiRadioShowcase.host_Beginning.wlan[2].mac.dcf.recoveryProcedure contentionWindowChanged:vector ETV
attr interpolationmode sample-hold
attr title "contention window, vector"
vector 63 MultiRadioShowcase.host_Beginning.wlan[3].mac.dcf.recoveryProcedure contentionWindowChanged:vector ETV
attr interpolationmode sample-hold
attr title "contention window, vector"
vector 64 MultiRadioShowcase.host_Beginning.wlan[4].mac.dcf.recoveryProcedure contentionWindowChanged:vector ETV
attr interpolationmode sample-hold
attr title "contention window, vector"
vector 65 MultiRadioShowcase.host_Middle.wlan[0].mac.dcf.recoveryProcedure contentionWindowChanged:vector ETV
attr interpolationmode sample-hold
attr title "contention window, vector"
vector 66 MultiRadioShowcase.host_Middle.wlan[1].mac.dcf.recoveryProcedure contentionWindowChanged:vector ETV
attr interpolationmode sample-hold
attr title "contention window, vector"
vector 67 MultiRadioShowcase.host_Middle.wlan[2].mac.dcf.recoveryProcedure contentionWindowChanged:vector ETV
attr interpolationmode sample-hold
attr title "contention window, vector"
vector 68 MultiRadioShowcase.host_Middle.wlan[3].mac.dcf.recoveryProcedure contentionWindowChanged:vector ETV
attr interpolationmode sample-hold
attr title "contention window, vector"
vector 69 MultiRadioShowcase.host_Middle.wlan[4].mac.dcf.recoveryProcedure contentionWindowChanged:vector ETV
attr interpolationmode sample-hold
attr title "contention window, vector"
vector 70 MultiRadioShowcase.host_End.wlan[0].mac.dcf.recoveryProcedure contentionWindowChanged:vector ETV
attr interpolationmode sample-hold
attr title "contention window, vector"
vector 71 MultiRadioShowcase.host_End.wlan[1].mac.dcf.recoveryProcedure contentionWindowChanged:vector ETV
attr interpolationmode sample-hold
attr title "contention window, vector"
vector 72 MultiRadioShowcase.host_End.wlan[2].mac.dcf.recoveryProcedure contentionWindowChanged:vector ETV
attr interpolationmode sample-hold
attr title "contention window, vector"
vector 73 MultiRadioShowcase.host_End.wlan[3].mac.dcf.recoveryProcedure contentionWindowChanged:vector ETV
attr interpolationmode sample-hold
attr title "contention window, vector"
vector 74 MultiRadioShowcase.host_End.wlan[4].mac.dcf.recoveryProcedure contentionWindowChanged:vector ETV
attr interpolationmode sample-hold
attr title "contention window, vector"
vector 75 MultiRadioShowcase.host_DifferentApp.wlan[0].mac.dcf.recoveryProcedure contentionWindowChanged:vector ETV
attr interpolationmode sample-hold
attr title "contention window, vector"
vector 76 MultiRadioShowcase.host_DifferentApp.wlan[1].mac.dcf.recoveryProcedure contentionWindowChanged:vector ETV
attr interpolationmode sample-hold
attr title "contention window, vector"
vector 77 MultiRadioShowcase.host_DifferentApp.wlan[2].mac.dcf.recoveryProcedure contentionWindowChanged:vector ETV
attr interpolationmode sample-hold
attr title "contention window, vector"
vector 78 MultiRadioShowcase.host_DifferentApp.wlan[3].mac.dcf.recoveryProcedure contentionWindowChanged:vector ETV
attr interpolationmode sample-hold
attr title "contention window, vector"
vector 79 MultiRadioShowcase.host_DifferentApp.wlan[4].mac.dcf.recoveryProcedure contentionWindowChanged:vector ETV
attr interpolationmode sample-hold
attr title "contention window, vector"
vector 80 MultiRadioShowcase.host_DifferentApp.app[0] packetSent:vector(packetBytes) ETV
attr interpolationmode none
attr source packetSent
attr title "packets sent, vector(packetBytes)"
vector 81 MultiRadioShowcase.host_DifferentApp.udp packetSent:vector(packetBytes) ETV
attr interpolationmode none
attr source packetSent
attr title "packets sent, vector(packetBytes)"
vector 82 MultiRadioShowcase.host_DifferentApp.wlan[1].mac packetReceivedFromUpper:vector(packetBytes) ETV
attr interpolationmode none
attr title "packets received from upper layer, vector(packetBytes)"
vector 83 MultiRadioShowcase.host_DifferentApp.wlan[1].mac.dcf.channelAccess.pendingQueue packetPushed:vector(packetBytes) ETV
attr interpolationmode none
attr title "packet pushed, vector(packetBytes)"
vector 84 MultiRadioShowcase.host_DifferentApp.wlan[1].mac.dcf.channelAccess.pendingQueue queueLength:vector ETV
attr interpolationmode sample-hold
attr source "count(packetPushed) - count(packetPopped) - count(packetRemoved) - count(packetDropped)"
attr title "queue length, vector"
vector 85 MultiRadioShowcase.host_DifferentApp.wlan[1].mac.dcf.channelAccess.contention backoffPeriodGenerated:vector ETV
attr interpolationmode none
attr title "backoff periods, vector"
vector 86 MultiRadioShowcase.host_DifferentApp.wlan[1].mac.dcf.channelAccess.contention backoffActive:vector ETV
attr interpolationmode sample-hold
attr source count(backoffStarted)-count(backoffStopped)
attr title "backoff active, vector"
vector 87 MultiRadioShowcase.host_Beginning.app[0] packetSent:vector(packetBytes) ETV
attr interpolationmode none
attr source packetSent
attr title "packets sent, vector(packetBytes)"
vector 88 MultiRadioShowcase.host_Beginning.udp packetSent:vector(packetBytes) ETV
attr interpolationmode none
attr source packetSent
attr title "packets sent, vector(packetBytes)"
vector 89 MultiRadioShowcase.host_Beginning.wlan[3].mac packetReceivedFromUpper:vector(packetBytes) ETV
attr interpolationmode none
attr title "packets received from upper layer, vector(packetBytes)"
vector 90 MultiRadioShowcase.host_Beginning.wlan[3].mac.dcf.channelAccess.pendingQueue packetPushed:vector(packetBytes) ETV
attr interpolationmode none
attr title "packet pushed, vector(packetBytes)"
vector 91 MultiRadioShowcase.host_Beginning.wlan[3].mac.dcf.channelAccess.pendingQueue queueLength:vector ETV
attr interpolationmode sample-hold
attr source "count(packetPushed) - count(packetPopped) - count(packetRemoved) - count(packetDropped)"
attr title "queue length, vector"
vector 92 MultiRadioShowcase.host_Beginning.wlan[3].mac.dcf.channelAccess.contention backoffPeriodGenerated:vector ETV
attr interpolationmode none
attr title "backoff periods, vector"
vector 93 MultiRadioShowcase.host_Beginning.wlan[3].mac.dcf.channelAccess.contention backoffActive:vector ETV
attr interpolationmode sample-hold
attr source count(backoffStarted)-count(backoffStopped)
attr title "backoff active, vector"
vector 94 MultiRadioShowcase.host_Beginning.wlan[3].mac.dcf.channelAccess.pendingQueue packetPopped:vector(packetBytes) ETV
attr interpolationmode none
attr title "packet popped, vector(packetBytes)"
vector 95 MultiRadioShowcase.host_Beginning.wlan[3].mac.dcf.channelAccess.pendingQueue queueingTime:vector ETV
attr interpolationmode none
attr source queueingTime(packetPopped)
attr title "queueing times, vector"
attr unit s
vector 96 MultiRadioShowcase.host_Beginning.wlan[3].mac.dcf.channelAccess.inProgressFrames queueLength:vector ETV
attr interpolationmode sample-hold
attr source "count(packetEnqueued) - count(packetDequeued)"
attr title "queue length, vector"
vector 97 MultiRadioShowcase.host_Beginning.wlan[3].mac.dcf datarateSelected:vector ETV
attr interpolationmode none
attr title "datarates selected, vector"
vector 98 MultiRadioShowcase.host_Beginning.wlan[3].mac packetSentToLower:vector(packetBytes) ETV
attr interpolationmode none
attr title "packets sent to lower layer, vector(packetBytes)"
vector 99 MultiRadioShowcase.host_Beginning.wlan[3].mac.dcf frameSequenceActive:vector ETV
attr interpolationmode sample-hold
attr source count(frameSequenceStarted)-count(frameSequenceFinished)
attr title "frame sequence active, vector"
vector 100 MultiRadioShowcase.host_Beginning.wlan[3].radio transmissionState:vector ETV
attr interpolationmode sample-hold
attr source transmissionStateChanged
attr title "Radio transmission state, vector"
vector 101 MultiRadioShowcase.host_Beginning.wlan[3].mac.dcf packetSentToPeer:vector(packetBytes) ETV
attr interpolationmode none
attr title "packets sent, vector(packetBytes)"
vector 102 MultiRadioShowcase.host_Beginning.wlan[3].mac.dcf packetSentToPeerUnicast:vector(packetBytes) ETV
attr interpolationmode none
attr source ieee80211Unicast(packetSentToPeer)
attr title "packets sent: unicast, vector(packetBytes)"
vector 103 MultiRadioShowcase.host_Beginning.wlan[3].mac.dcf packetSentToPeerWithoutRetry:vector(packetBytes) ETV
attr interpolationmode none
attr source ieee80211NotRetry(packetSentToPeer)
attr title "packets sent: without retry, vector(packetBytes)"
vector 104 MultiRadioShowcase.host_Beginning.wlan[3].mac.rx nav:vector ETV
attr interpolationmode linear
attr source navChanged
attr title "network allocation vector, vector"
vector 105 MultiRadioShowcase.host_Beginning.wlan[0].mac packetReceivedFromLower:vector(packetBytes) ETV
attr interpolationmode none
attr title "packets received from lower layer, vector(packetBytes)"
vector 106 MultiRadioShowcase.host_Beginning.wlan[0].mac.rx nav:vector ETV
attr interpolationmode linear
attr source navChanged
attr title "network allocation vector, vector"
vector 107 MultiRadioShowcase.host_Beginning.wlan[0].mac.dcf packetDrop:vector(packetBytes) ETV
attr interpolationmode none
attr source packetDropped
attr title "packet drops, vector(packetBytes)"
vector 108 MultiRadioShowcase.host_Beginning.wlan[0].mac.dcf packetDropNotAddressedToUs:vector(packetBytes) ETV
attr interpolationmode none
attr source packetDropReasonIsNotAddressedToUs(packetDropped)
attr title "packet drops: not addressed to us, vector(packetBytes)"
vector 109 MultiRadioShowcase.host_Beginning.wlan[0].mac packetDrop:vector(packetBytes) ETV
attr interpolationmode none
attr source packetDropped
attr title "packet drops, vector(packetBytes)"
vector 110 MultiRadioShowcase.host_Beginning.wlan[0].mac packetDropNotAddressedToUs:vector(packetBytes) ETV
attr interpolationmode none
attr source packetDropReasonIsNotAddressedToUs(packetDropped)
attr title "packet drops: not addressed to us, vector(packetBytes)"
vector 111 MultiRadioShowcase.host_Beginning.wlan[1].mac packetReceivedFromLower:vector(packetBytes) ETV
attr interpolationmode none
attr title "packets received from lower layer, vector(packetBytes)"
vector 112 MultiRadioShowcase.host_Beginning.wlan[1].mac.rx nav:vector ETV
attr interpolationmode linear
attr source navChanged
attr title "network allocation vector, vector"
vector 113 MultiRadioShowcase.host_Beginning.wlan[1].mac.dcf packetDrop:vector(packetBytes) ETV
attr interpolationmode none
attr source packetDropped
attr title "packet drops, vector(packetBytes)"
vector 114 MultiRadioShowcase.host_Beginning.wlan[1].mac.dcf packetDropNotAddressedToUs:vector(packetBytes) ETV
attr interpolationmode none
attr source packetDropReasonIsNotAddressedToUs(packetDropped)
attr title "packet drops: not addressed to us, vector(packetBytes)"
vector 115 MultiRadioShowcase.host_Beginning.wlan[1].mac packetDrop:vector(packetBytes) ETV
attr interpolationmode none
attr source packetDropped
attr title "packet drops, vector(packetBytes)"
vector 116 MultiRadioShowcase.host_Beginning.wlan[1].mac packetDropNotAddressedToUs:vector(packetBytes) ETV
attr interpolationmode none
attr source packetDropReasonIsNotAddressedToUs(packetDropped)
attr title "packet drops: not addressed to us, vector(packetBytes)"
vector 117 MultiRadioShowcase.host_Beginning.wlan[2].mac packetReceivedFromLower:vector(packetBytes) ETV
attr interpolationmode none
attr title "packets received from lower layer, vector(packetBytes)"
vector 118 MultiRadioShowcase.host_Beginning.wlan[2].mac.rx nav:vector ETV
attr interpolationmode linear
attr source navChanged
attr title "network allocation vector, vector"
vector 119 MultiRadioShowcase.host_Beginning.wlan[2].mac.dcf packetDrop:vector(packetBytes) ETV
attr interpolationmode none
attr source packetDropped
attr title "packet drops, vector(packetBytes)"
vector 120 MultiRadioShowcase.host_Beginning.wlan[2].mac.dcf packetDropNotAddressedToUs:vector(packetBytes) ETV
attr interpolationmode none
attr source packetDropReasonIsNotAddressedToUs(packetDropped)
attr title "packet drops: not addressed to us, vector(packetBytes)"
vector 121 MultiRadioShowcase.host_Beginning.wlan[2].mac packetDrop:vector(packetBytes) ETV
attr interpolationmode none
attr source packetDropped
attr title "packet drops, vector(packetBytes)"
vector 122 MultiRadioShowcase.host_Beginning.wlan[2].mac packetDropNotAddressedToUs:vector(packetBytes) ETV
attr interpolationmode none
attr source packetDropReasonIsNotAddressedToUs(packetDropped)
attr title "packet drops: not addressed to us, vector(packetBytes)"
vector 123 MultiRadioShowcase.host_Beginning.wlan[4].mac packetReceivedFromLower:vector(packetBytes) ETV
attr interpolationmode none
attr title "packets received from lower layer, vector(packetBytes)"
vector 124 MultiRadioShowcase.host_Beginning.wlan[4].mac.rx nav:vector ETV
attr interpolationmode linear
attr source navChanged
attr title "network allocation vector, vector"
vector 125 MultiRadioShowcase.host_Beginning.wlan[4].mac.dcf packetDrop:vector(packetBytes) ETV
attr interpolationmode none
attr source packetDropped
attr title "packet drops, vector(packetBytes)"
vector 126 MultiRadioShowcase.host_Beginning.wlan[4].mac.dcf packetDropNotAddressedToUs:vector(packetBytes) ETV
attr interpolationmode none
attr source packetDropReasonIsNotAddressedToUs(packetDropped)
attr title "packet drops: not addressed to us, vector(packetBytes)"
vector 127 MultiRadioShowcase.host_Beginning.wlan[4].mac packetDrop:vector(packetBytes) ETV
attr interpolationmode none
attr source packetDropped
attr title "packet drops, vector(packetBytes)"
vector 128 MultiRadioShowcase.host_Beginning.wlan[4].mac packetDropNotAddressedToUs:vector(packetBytes) ETV
attr interpolationmode none
attr source packetDropReasonIsNotAddressedToUs(packetDropped)
attr title "packet drops: not addressed to us, vector(packetBytes)"
vector 129 MultiRadioShowcase.host_DifferentApp.wlan[0].mac packetReceivedFromLower:vector(packetBytes) ETV
attr interpolationmode none
attr title "packets received from lower layer, vector(packetBytes)"
vector 130 MultiRadioShowcase.host_DifferentApp.wlan[0].mac.rx nav:vector ETV
attr interpolationmode linear
attr source navChanged
attr title "network allocation vector, vector"
vector 131 MultiRadioShowcase.host_DifferentApp.wlan[0].mac.dcf packetDrop:vector(packetBytes) ETV
attr interpolationmode none
attr source packetDropped
attr title "packet drops, vector(packetBytes)"
vector 132 MultiRadioShowcase.host_DifferentApp.wlan[0].mac.dcf packetDropNotAddressedToUs:vector(packetBytes) ETV
attr interpolationmode none
attr source packetDropReasonIsNotAddressedToUs(packetDropped)
attr title "packet drops: not addressed to us, vector(packetBytes)"
vector 133 MultiRadioShowcase.host_DifferentApp.wlan[0].mac packetDrop:vector(packetBytes) ETV
attr interpolationmode none
attr source packetDropped
attr title "packet drops, vector(packetBytes)"
vector 134 MultiRadioShowcase.host_DifferentApp.wlan[0].mac packetDropNotAddressedToUs:vector(packetBytes) ETV
attr interpolationmode none
attr source packetDropReasonIsNotAddressedToUs(packetDropped)
attr title "packet drops: not addressed to us, vector(packetBytes)"
vector 135 MultiRadioShowcase.host_DifferentApp.wlan[1].mac packetReceivedFromLower:vector(packetBytes) ETV
attr interpolationmode none
attr title "packets received from lower layer, vector(packetBytes)"
vector 136 MultiRadioShowcase.host_DifferentApp.wlan[1].mac.rx nav:vector ETV
attr interpolationmode linear
attr source navChanged
attr title "network allocation vector, vector"
vector 137 MultiRadioShowcase.host_DifferentApp.wlan[1].mac.dcf packetDrop:vector(packetBytes) ETV
attr interpolationmode none
attr source packetDropped
attr title "packet drops, vector(packetBytes)"
vector 138 MultiRadioShowcase.host_DifferentApp.wlan[1].mac.dcf packetDropNotAddressedToUs:vector(packetBytes) ETV
attr interpolationmode none
attr source packetDropReasonIsNotAddressedToUs(packetDropped)
attr title "packet drops: not addressed to us, vector(packetBytes)"
vector 139 MultiRadioShowcase.host_DifferentApp.wlan[1].mac packetDrop:vector(packetBytes) ETV
attr interpolationmode none
attr source packetDropped
attr title "packet drops, vector(packetBytes)"
vector 140 MultiRadioShowcase.host_DifferentApp.wlan[1].mac packetDropNotAddressedToUs:vector(packetBytes) ETV
attr interpolationmode none
attr source packetDropReasonIsNotAddressedToUs(packetDropped)
attr title "packet drops: not addressed to us, vector(packetBytes)"
vector 141 MultiRadioShowcase.host_DifferentApp.wlan[2].mac packetReceivedFromLower:vector(packetBytes) ETV
attr interpolationmode none
attr title "packets received from lower layer, vector(packetBytes)"
vector 142 MultiRadioShowcase.host_DifferentApp.wlan[2].mac.rx nav:vector ETV
attr interpolationmode linear
attr source navChanged
attr title "network allocation vector, vector"
vector 143 MultiRadioShowcase.host_DifferentApp.wlan[2].mac.dcf packetDrop:vector(packetBytes) ETV
attr interpolationmode none
attr source packetDropped
attr title "packet drops, vector(packetBytes)"
vector 144 MultiRadioShowcase.host_DifferentApp.wlan[2].mac.dcf packetDropNotAddressedToUs:vector(packetBytes) ETV
attr interpolationmode none
attr source packetDropReasonIsNotAddressedToUs(packetDropped)
attr title "packet drops: not addressed to us, vector(packetBytes)"
vector 145 MultiRadioShowcase.host_DifferentApp.wlan[2].mac packetDrop:vector(packetBytes) ETV
attr interpolationmode none
attr source packetDropped
attr title "packet drops, vector(packetBytes)"
vector 146 MultiRadioShowcase.host_DifferentApp.wlan[2].mac packetDropNotAddressedToUs:vector(packetBytes) ETV
attr interpolationmode none
attr source packetDropReasonIsNotAddressedToUs(packetDropped)
attr title "packet drops: not addressed to us, vector(packetBytes)"
vector 147 MultiRadioShowcase.host_DifferentApp.wlan[3].mac packetReceivedFromLower:vector(packetBytes) ETV
attr interpolationmode none
attr title "packets received from lower layer, vector(packetBytes)"
vector 148 MultiRadioShowcase.host_DifferentApp.wlan[3].mac.rx nav:vector ETV
attr interpolationmode linear
attr source navChanged
attr title "network allocation vector, vector"
vector 149 MultiRadioShowcase.host_DifferentApp.wlan[3].mac.dcf packetDrop:vector(packetBytes) ETV
attr interpolationmode none
attr source packetDropped
attr title "packet drops, vector(packetBytes)"
vector 150 MultiRadioShowcase.host_DifferentApp.wlan[3].mac.dcf packetDropNotAddressedToUs:vector(packetBytes) ETV
attr interpolationmode none
attr source packetDropReasonIsNotAddressedToUs(packetDropped)
attr title "packet drops: not addressed to us, vector(packetBytes)"
vector 151 MultiRadioShowcase.host_DifferentApp.wlan[3].mac packetDrop:vector(packetBytes) ETV
attr interpolationmode none
attr source packetDropped
attr title "packet drops, vector(packetBytes)"
vector 152 MultiRadioShowcase.host_DifferentApp.wlan[3].mac packetDropNotAddressedToUs:vector(packetBytes) ETV
attr interpolationmode none
attr source packetDropReasonIsNotAddressedToUs(packetDropped)
attr title "packet drops: not addressed to us, vector(packetBytes)"
vector 153 MultiRadioShowcase.host_DifferentApp.wlan[4].mac packetReceivedFromLower:vector(packetBytes) ETV
attr interpolationmode none
attr title "packets received from lower layer, vector(packetBytes)"
vector 154 MultiRadioShowcase.host_DifferentApp.wlan[4].mac.rx nav:vector ETV
attr interpolationmode linear
attr source navChanged
attr title "network allocation vector, vector"
vector 155 MultiRadioShowcase.host_DifferentApp.wlan[4].mac.dcf packetDrop:vector(packetBytes) ETV
attr interpolationmode none
attr source packetDropped
attr title "packet drops, vector(packetBytes)"
vector 156 MultiRadioShowcase.host_DifferentApp.wlan[4].mac.dcf packetDropNotAddressedToUs:vector(packetBytes) ETV
attr interpolationmode none
attr source packetDropReasonIsNotAddressedToUs(packetDropped)
attr title "packet drops: not addressed to us, vector(packetBytes)"
vector 157 MultiRadioShowcase.host_DifferentApp.wlan[4].mac packetDrop:vector(packetBytes) ETV
attr interpolationmode none
attr source packetDropped
attr title "packet drops, vector(packetBytes)"
vector 158 MultiRadioShowcase.host_DifferentApp.wlan[4].mac packetDropNotAddressedToUs:vector(packetBytes) ETV
attr interpolationmode none
attr source packetDropReasonIsNotAddressedToUs(packetDropped)
attr title "packet drops: not addressed to us, vector(packetBytes)"
vector 159 MultiRadioShowcase.host_Middle.wlan[0].mac packetReceivedFromLower:vector(packetBytes) ETV
attr interpolationmode none
attr title "packets received from lower layer, vector(packetBytes)"
vector 160 MultiRadioShowcase.host_Middle.wlan[0].mac.dcf packetReceivedFromPeer:vector(packetBytes) ETV
attr interpolationmode none
attr title "packets received, vector(packetBytes)"
vector 161 MultiRadioShowcase.host_Middle.wlan[0].mac.dcf packetReceivedFromPeerUnicast:vector(packetBytes) ETV
attr interpolationmode none
attr source ieee80211Unicast(packetReceivedFromPeer)
attr title "packets received: unicast, vector(packetBytes)"
vector 162 MultiRadioShowcase.host_Middle.wlan[0].mac.dcf packetReceivedFromPeerWithoutRetry:vector(packetBytes) ETV
attr interpolationmode none
attr source ieee80211NotRetry(packetReceivedFromPeer)
attr title "packets received: without retry, vector(packetBytes)"
vector 163 MultiRadioShowcase.host_Middle.wlan[0].mac.dcf datarateSelected:vector ETV
attr interpolationmode none
attr title "datarates selected, vector"
vector 164 MultiRadioShowcase.host_Middle.wlan[0].mac packetSentToUpper:vector(packetBytes) ETV
attr interpolationmode none
attr title "packets sent to upper layer, vector(packetBytes)"
vector 165 MultiRadioShowcase.host_Middle.wlan[1].mac packetReceivedFromLower:vector(packetBytes) ETV
attr interpolationmode none
attr title "packets received from lower layer, vector(packetBytes)"
vector 166 MultiRadioShowcase.host_Middle.wlan[1].mac.rx nav:vector ETV
attr interpolationmode linear
attr source navChanged
attr title "network allocation vector, vector"
vector 167 MultiRadioShowcase.host_Middle.wlan[1].mac.dcf packetDrop:vector(packetBytes) ETV
attr interpolationmode none
attr source packetDropped
attr title "packet drops, vector(packetBytes)"
vector 168 MultiRadioShowcase.host_Middle.wlan[1].mac.dcf packetDropNotAddressedToUs:vector(packetBytes) ETV
attr interpolationmode none
attr source packetDropReasonIsNotAddressedToUs(packetDropped)
attr title "packet drops: not addressed to us, vector(packetBytes)"
vector 169 MultiRadioShowcase.host_Middle.wlan[1].mac packetDrop:vector(packetBytes) ETV
attr interpolationmode none
attr source packetDropped
attr title "packet drops, vector(packetBytes)"
vector 170 MultiRadioShowcase.host_Middle.wlan[1].mac packetDropNotAddressedToUs:vector(packetBytes) ETV
attr interpolationmode none
attr source packetDropReasonIsNotAddressedToUs(packetDropped)
attr title "packet drops: not addressed to us, vector(packetBytes)"
vector 171 MultiRadioShowcase.host_Middle.wlan[2].mac packetReceivedFromLower:vector(packetBytes) ETV
attr interpolationmode none
attr title "packets received from lower layer, vector(packetBytes)"
vector 172 MultiRadioShowcase.host_Middle.wlan[2].mac.rx nav:vector ETV
attr interpolationmode linear
attr source navChanged
attr title "network allocation vector, vector"
vector 173 MultiRadioShowcase.host_Middle.wlan[2].mac.dcf packetDrop:vector(packetBytes) ETV
attr interpolationmode none
attr source packetDropped
attr title "packet drops, vector(packetBytes)"
vector 174 MultiRadioShowcase.host_Middle.wlan[2].mac.dcf packetDropNotAddressedToUs:vector(packetBytes) ETV
attr interpolationmode none
attr source packetDropReasonIsNotAddressedToUs(packetDropped)
attr title "packet drops: not addressed to us, vector(packetBytes)"
vector 175 MultiRadioShowcase.host_Middle.wlan[2].mac packetDrop:vector(packetBytes) ETV
attr interpolationmode none
attr source packetDropped
attr title "packet drops, vector(packetBytes)"
vector 176 MultiRadioShowcase.host_Middle.wlan[2].mac packetDropNotAddressedToUs:vector(packetBytes) ETV
attr interpolationmode none
attr source packetDropReasonIsNotAddressedToUs(packetDropped)
attr title "packet drops: not addressed to us, vector(packetBytes)"
vector 177 MultiRadioShowcase.host_Middle.wlan[3].mac packetReceivedFromLower:vector(packetBytes) ETV
attr interpolationmode none
attr title "packets received from lower layer, vector(packetBytes)"
vector 178 MultiRadioShowcase.host_Middle.wlan[3].mac.rx nav:vector ETV
attr interpolationmode linear
attr source navChanged
attr title "network allocation vector, vector"
vector 179 MultiRadioShowcase.host_Middle.wlan[3].mac.dcf packetDrop:vector(packetBytes) ETV
attr interpolationmode none
attr source packetDropped
attr title "packet drops, vector(packetBytes)"
vector 180 MultiRadioShowcase.host_Middle.wlan[3].mac.dcf packetDropNotAddressedToUs:vector(packetBytes) ETV
attr interpolationmode none
attr source packetDropReasonIsNotAddressedToUs(packetDropped)
attr title "packet drops: not addressed to us, vector(packetBytes)"
vector 181 MultiRadioShowcase.host_Middle.wlan[3].mac packetDrop:vector(packetBytes) ETV
attr interpolationmode none
attr source packetDropped
attr title "packet drops, vector(packetBytes)"
vector 182 MultiRadioShowcase.host_Middle.wlan[3].mac packetDropNotAddressedToUs:vector(packetBytes) ETV
attr interpolationmode none
attr source packetDropReasonIsNotAddressedToUs(packetDropped)
attr title "packet drops: not addressed to us, vector(packetBytes)"
vector 183 MultiRadioShowcase.host_Middle.wlan[4].mac packetReceivedFromLower:vector(packetBytes) ETV
attr interpolationmode none
attr title "packets received from lower layer, vector(packetBytes)"
vector 184 MultiRadioShowcase.host_Middle.wlan[4].mac.rx nav:vector ETV
attr interpolationmode linear
attr source navChanged
attr title "network allocation vector, vector"
vector 185 MultiRadioShowcase.host_Middle.wlan[4].mac.dcf packetDrop:vector(packetBytes) ETV
attr interpolationmode none
attr source packetDropped
attr title "packet drops, vector(packetBytes)"
vector 186 MultiRadioShowcase.host_Middle.wlan[4].mac.dcf packetDropNotAddressedToUs:vector(packetBytes) ETV
attr interpolationmode none
attr source packetDropReasonIsNotAddressedToUs(packetDropped)
attr title "packet drops: not addressed to us, vector(packetBytes)"
vector 187 MultiRadioShowcase.host_Middle.wlan[4].mac packetDrop:vector(packetBytes) ETV
attr interpolationmode none
attr source packetDropped
attr title "packet drops, vector(packetBytes)"
vector 188 MultiRadioShowcase.host_Middle.wlan[4].mac packetDropNotAddressedToUs:vector(packetBytes) ETV
attr interpolationmode none
attr source packetDropReasonIsNotAddressedToUs(packetDropped)
attr title "packet drops: not addressed to us, vector(packetBytes)"
vector 189 MultiRadioShowcase.host_Middle.wlan[3].mac packetReceivedFromUpper:vector(packetBytes) ETV
attr interpolationmode none
attr title "packets received from upper layer, vector(packetBytes)"
vector 190 MultiRadioShowcase.host_Middle.wlan[3].mac.dcf.channelAccess.pendingQueue packetPushed:vector(packetBytes) ETV
attr interpolationmode none
attr title "packet pushed, vector(packetBytes)"
vector 191 MultiRadioShowcase.host_Middle.wlan[3].mac.dcf.channelAccess.pendingQueue queueLength:vector ETV
attr interpolationmode sample-hold
attr source "count(packetPushed) - count(packetPopped) - count(packetRemoved) - count(packetDropped)"
attr title "queue length, vector"
vector 192 MultiRadioShowcase.host_Middle.wlan[3].mac.dcf.channelAccess.contention backoffPeriodGenerated:vector ETV
attr interpolationmode none
attr title "backoff periods, vector"
vector 193 MultiRadioShowcase.host_Middle.wlan[0].mac packetSentToLower:vector(packetBytes) ETV
attr interpolationmode none
attr title "packets sent to lower layer, vector(packetBytes)"
vector 194 MultiRadioShowcase.host_Middle.wlan[0].radio transmissionState:vector ETV
attr interpolationmode sample-hold
attr source transmissionStateChanged
attr title "Radio transmission state, vector"
vector 195 MultiRadioShowcase.host_Middle.wlan[0].mac.dcf packetSentToPeer:vector(packetBytes) ETV
attr interpolationmode none
attr title "packets sent, vector(packetBytes)"
vector 196 MultiRadioShowcase.host_Middle.wlan[0].mac.dcf packetSentToPeerUnicast:vector(packetBytes) ETV
attr interpolationmode none
attr source ieee80211Unicast(packetSentToPeer)
attr title "packets sent: unicast, vector(packetBytes)"
vector 197 MultiRadioShowcase.host_Middle.wlan[0].mac.dcf packetSentToPeerWithoutRetry:vector(packetBytes) ETV
attr interpolationmode none
attr source ieee80211NotRetry(packetSentToPeer)
attr title "packets sent: without retry, vector(packetBytes)"
vector 198 MultiRadioShowcase.host_Middle.wlan[3].mac.dcf.channelAccess.contention backoffActive:vector ETV
attr interpolationmode sample-hold
attr source count(backoffStarted)-count(backoffStopped)
attr title "backoff active, vector"
vector 199 MultiRadioShowcase.host_Beginning.wlan[3].mac packetReceivedFromLower:vector(packetBytes) ETV
attr interpolationmode none
attr title "packets received from lower layer, vector(packetBytes)"
vector 200 MultiRadioShowcase.host_Beginning.wlan[3].mac.dcf packetReceivedFromPeer:vector(packetBytes) ETV
attr interpolationmode none
attr title "packets received, vector(packetBytes)"
vector 201 MultiRadioShowcase.host_Beginning.wlan[3].mac.dcf packetReceivedFromPeerUnicast:vector(packetBytes) ETV
attr interpolationmode none
attr source ieee80211Unicast(packetReceivedFromPeer)
attr title "packets received: unicast, vector(packetBytes)"
vector 202 MultiRadioShowcase.host_Beginning.wlan[3].mac.dcf packetReceivedFromPeerWithoutRetry:vector(packetBytes) ETV
attr interpolationmode none
attr source ieee80211NotRetry(packetReceivedFromPeer)
attr title "packets received: without retry, vector(packetBytes)"
vector 203 MultiRadioShowcase.host_Beginning.wlan[3].mac.dcf.channelAccess.inProgressFrames queueingTime:vector ETV
attr interpolationmode none
attr source queueingTime(packetDequeued)
attr title "queueing times, vector"
vector 204 MultiRadioShowcase.host_End.wlan[0].mac packetReceivedFromLower:vector(packetBytes) ETV
attr interpolationmode none
attr title "packets received from lower layer, vector(packetBytes)"
vector 205 MultiRadioShowcase.host_End.wlan[0].mac.dcf packetDrop:vector(packetBytes) ETV
attr interpolationmode none
attr source packetDropped
attr title "packet drops, vector(packetBytes)"
vector 206 MultiRadioShowcase.host_End.wlan[0].mac.dcf packetDropNotAddressedToUs:vector(packetBytes) ETV
attr interpolationmode none
attr source packetDropReasonIsNotAddressedToUs(packetDropped)
attr title "packet drops: not addressed to us, vector(packetBytes)"
vector 207 MultiRadioShowcase.host_End.wlan[0].mac packetDrop:vector(packetBytes) ETV
attr interpolationmode none
attr source packetDropped
attr title "packet drops, vector(packetBytes)"
vector 208 MultiRadioShowcase.host_End.wlan[0].mac packetDropNotAddressedToUs:vector(packetBytes) ETV
attr interpolationmode none
attr source packetDropReasonIsNotAddressedToUs(packetDropped)
attr title "packet drops: not addressed to us, vector(packetBytes)"
vector 209 MultiRadioShowcase.host_End.wlan[1].mac packetReceivedFromLower:vector(packetBytes) ETV
attr interpolationmode none
attr title "packets received from lower layer, vector(packetBytes)"
vector 210 MultiRadioShowcase.host_End.wlan[1].mac.dcf packetDrop:vector(packetBytes) ETV
attr interpolationmode none
attr source packetDropped
attr title "packet drops, vector(packetBytes)"
vector 211 MultiRadioShowcase.host_End.wlan[1].mac.dcf packetDropNotAddressedToUs:vector(packetBytes) ETV
attr interpolationmode none
attr source packetDropReasonIsNotAddressedToUs(packetDropped)
attr title "packet drops: not addressed to us, vector(packetBytes)"
vector 212 MultiRadioShowcase.host_End.wlan[1].mac packetDrop:vector(packetBytes) ETV
attr interpolationmode none
attr source packetDropped
attr title "packet drops, vector(packetBytes)"
vector 213 MultiRadioShowcase.host_End.wlan[1].mac packetDropNotAddressedToUs:vector(packetBytes) ETV
attr interpolationmode none
attr source packetDropReasonIsNotAddressedToUs(packetDropped)
attr title "packet drops: not addressed to us, vector(packetBytes)"
vector 214 MultiRadioShowcase.host_End.wlan[2].mac packetReceivedFromLower:vector(packetBytes) ETV
attr interpolationmode none
attr title "packets received from lower layer, vector(packetBytes)"
vector 215 MultiRadioShowcase.host_End.wlan[2].mac.dcf packetDrop:vector(packetBytes) ETV
attr interpolationmode none
attr source packetDropped
attr title "packet drops, vector(packetBytes)"
vector 216 MultiRadioShowcase.host_End.wlan[2].mac.dcf packetDropNotAddressedToUs:vector(packetBytes) ETV
attr interpolationmode none
attr source packetDropReasonIsNotAddressedToUs(packetDropped)
attr title "packet drops: not addressed to us, vector(packetBytes)"
vector 217 MultiRadioShowcase.host_End.wlan[2].mac packetDrop:vector(packetBytes) ETV
attr interpolationmode none
attr source packetDropped
attr title "packet drops, vector(packetBytes)"
vector 218 MultiRadioShowcase.host_End.wlan[2].mac packetDropNotAddressedToUs:vector(packetBytes) ETV
attr interpolationmode none
attr source packetDropReasonIsNotAddressedToUs(packetDropped)
attr title "packet drops: not addressed to us, vector(packetBytes)"
vector 219 MultiRadioShowcase.host_End.wlan[3].mac packetReceivedFromLower:vector(packetBytes) ETV
attr interpolationmode none
attr title "packets received from lower layer, vector(packetBytes)"
vector 220 MultiRadioShowcase.host_End.wlan[3].mac.dcf packetDrop:vector(packetBytes) ETV
attr interpolationmode none
attr source packetDropped
attr title "packet drops, vector(packetBytes)"
vector 221 MultiRadioShowcase.host_End.wlan[3].mac.dcf packetDropNotAddressedToUs:vector(packetBytes) ETV
attr interpolationmode none
attr source packetDropReasonIsNotAddressedToUs(packetDropped)
attr title "packet drops: not addressed to us, vector(packetBytes)"
vector 222 MultiRadioShowcase.host_End.wlan[3].mac packetDrop:vector(packetBytes) ETV
attr interpolationmode none
attr source packetDropped
attr title "packet drops, vector(packetBytes)"
vector 223 MultiRadioShowcase.host_End.wlan[3].mac packetDropNotAddressedToUs:vector(packetBytes) ETV
attr interpolationmode none
attr source packetDropReasonIsNotAddressedToUs(packetDropped)
attr title "packet drops: not addressed to us, vector(packetBytes)"
vector 224 MultiRadioShowcase.host_End.wlan[4].mac packetReceivedFromLower:vector(packetBytes) ETV
attr interpolationmode none
attr title "packets received from lower layer, vector(packetBytes)"
vector 225 MultiRadioShowcase.host_End.wlan[4].mac.dcf packetDrop:vector(packetBytes) ETV
attr interpolationmode none
attr source packetDropped
attr title "packet drops, vector(packetBytes)"
vector 226 MultiRadioShowcase.host_End.wlan[4].mac.dcf packetDropNotAddressedToUs:vector(packetBytes) ETV
attr interpolationmode none
attr source packetDropReasonIsNotAddressedToUs(packetDropped)
attr title "packet drops: not addressed to us, vector(packetBytes)"
vector 227 MultiRadioShowcase.host_End.wlan[4].mac packetDrop:vector(packetBytes) ETV
attr interpolationmode none
attr source packetDropped
attr title "packet drops, vector(packetBytes)"
vector 228 MultiRadioShowcase.host_End.wlan[4].mac packetDropNotAddressedToUs:vector(packetBytes) ETV
attr interpolationmode none
attr source packetDropReasonIsNotAddressedToUs(packetDropped)
attr title "packet drops: not addressed to us, vector(packetBytes)"
vector 229 MultiRadioShowcase.host_DifferentApp.wlan[1].mac.dcf.channelAccess.pendingQueue packetPopped:vector(packetBytes) ETV
attr interpolationmode none
attr title "packet popped, vector(packetBytes)"
vector 230 MultiRadioShowcase.host_DifferentApp.wlan[1].mac.dcf.channelAccess.pendingQueue queueingTime:vector ETV
attr interpolationmode none
attr source queueingTime(packetPopped)
attr title "queueing times, vector"
attr unit s
vector 231 MultiRadioShowcase.host_DifferentApp.wlan[1].mac.dcf.channelAccess.inProgressFrames queueLength:vector ETV
attr interpolationmode sample-hold
attr source "count(packetEnqueued) - count(packetDequeued)"
attr title "queue length, vector"
vector 232 MultiRadioShowcase.host_DifferentApp.wlan[1].mac.dcf datarateSelected:vector ETV
attr interpolationmode none
attr title "datarates selected, vector"
vector 233 MultiRadioShowcase.host_DifferentApp.wlan[1].mac packetSentToLower:vector(packetBytes) ETV
attr interpolationmode none
attr title "packets sent to lower layer, vector(packetBytes)"
vector 234 MultiRadioShowcase.host_DifferentApp.wlan[1].mac.dcf frameSequenceActive:vector ETV
attr interpolationmode sample-hold
attr source count(frameSequenceStarted)-count(frameSequenceFinished)
attr title "frame sequence active, vector"
vector 235 MultiRadioShowcase.host_DifferentApp.wlan[1].radio transmissionState:vector ETV
attr interpolationmode sample-hold
attr source transmissionStateChanged
attr title "Radio transmission state, vector"
vector 236 MultiRadioShowcase.host_DifferentApp.wlan[1].mac.dcf packetSentToPeer:vector(packetBytes) ETV
attr interpolationmode none
attr title "packets sent, vector(packetBytes)"
vector 237 MultiRadioShowcase.host_DifferentApp.wlan[1].mac.dcf packetSentToPeerUnicast:vector(packetBytes) ETV
attr interpolationmode none
attr source ieee80211Unicast(packetSentToPeer)
attr title "packets sent: unicast, vector(packetBytes)"
vector 238 MultiRadioShowcase.host_DifferentApp.wlan[1].mac.dcf packetSentToPeerWithoutRetry:vector(packetBytes) ETV
attr interpolationmode none
attr source ieee80211NotRetry(packetSentToPeer)
attr title "packets sent: without retry, vector(packetBytes)"
vector 239 MultiRadioShowcase.host_Beginning.wlan[3].mac.dcf packetDrop:vector(packetBytes) ETV
attr interpolationmode none
attr source packetDropped
attr title "packet drops, vector(packetBytes)"
vector 240 MultiRadioShowcase.host_Beginning.wlan[3].mac.dcf packetDropNotAddressedToUs:vector(packetBytes) ETV
attr interpolationmode none
attr source packetDropReasonIsNotAddressedToUs(packetDropped)
attr title "packet drops: not addressed to us, vector(packetBytes)"
vector 241 MultiRadioShowcase.host_Beginning.wlan[3].mac packetDrop:vector(packetBytes) ETV
attr interpolationmode none
attr source packetDropped
attr title "packet drops, vector(packetBytes)"
vector 242 MultiRadioShowcase.host_Beginning.wlan[3].mac packetDropNotAddressedToUs:vector(packetBytes) ETV
attr interpolationmode none
attr source packetDropReasonIsNotAddressedToUs(packetDropped)
attr title "packet drops: not addressed to us, vector(packetBytes)"
vector 243 MultiRadioShowcase.host_Middle.wlan[4].mac packetReceivedFromUpper:vector(packetBytes) ETV
attr interpolationmode none
attr title "packets received from upper layer, vector(packetBytes)"
vector 244 MultiRadioShowcase.host_Middle.wlan[4].mac.dcf.channelAccess.pendingQueue packetPushed:vector(packetBytes) ETV
attr interpolationmode none
attr title "packet pushed, vector(packetBytes)"
vector 245 MultiRadioShowcase.host_Middle.wlan[4].mac.dcf.channelAccess.pendingQueue queueLength:vector ETV
attr interpolationmode sample-hold
attr source "count(packetPushed) - count(packetPopped) - count(packetRemoved) - count(packetDropped)"
attr title "queue length, vector"
vector 246 MultiRadioShowcase.host_Middle.wlan[4].mac.dcf.channelAccess.contention backoffPeriodGenerated:vector ETV
attr interpolationmode none
attr title "backoff periods, vector"
vector 247 MultiRadioShowcase.host_Middle.wlan[4].mac.dcf.channelAccess.contention backoffActive:vector ETV
attr interpolationmode sample-hold
attr source count(backoffStarted)-count(backoffStopped)
attr title "backoff active, vector"
vector 248 MultiRadioShowcase.host_DifferentApp.wlan[1].mac.dcf packetReceivedFromPeer:vector(packetBytes) ETV
attr interpolationmode none
attr title "packets received, vector(packetBytes)"
vector 249 MultiRadioShowcase.host_DifferentApp.wlan[1].mac.dcf packetReceivedFromPeerUnicast:vector(packetBytes) ETV
attr interpolationmode none
attr source ieee80211Unicast(packetReceivedFromPeer)
attr title "packets received: unicast, vector(packetBytes)"
vector 250 MultiRadioShowcase.host_DifferentApp.wlan[1].mac.dcf packetReceivedFromPeerWithoutRetry:vector(packetBytes) ETV
attr interpolationmode none
attr source ieee80211NotRetry(packetReceivedFromPeer)
attr title "packets received: without retry, vector(packetBytes)"
vector 251 MultiRadioShowcase.host_DifferentApp.wlan[1].mac.dcf.channelAccess.inProgressFrames queueingTime:vector ETV
attr interpolationmode none
attr source queueingTime(packetDequeued)
attr title "queueing times, vector"
vector 252 MultiRadioShowcase.host_Middle.wlan[3].mac.dcf.channelAccess.pendingQueue packetPopped:vector(packetBytes) ETV
attr interpolationmode none
attr title "packet popped, vector(packetBytes)"
vector 253 MultiRadioShowcase.host_Middle.wlan[3].mac.dcf.channelAccess.pendingQueue queueingTime:vector ETV
attr interpolationmode none
attr source queueingTime(packetPopped)
attr title "queueing times, vector"
attr unit s
vector 254 MultiRadioShowcase.host_Middle.wlan[3].mac.dcf.channelAccess.inProgressFrames queueLength:vector ETV
attr interpolationmode sample-hold
attr source "count(packetEnqueued) - count(packetDequeued)"
attr title "queue length, vector"
vector 255 MultiRadioShowcase.host_Middle.wlan[3].mac.dcf datarateSelected:vector ETV
attr interpolationmode none
attr title "datarates selected, vector"
vector 256 MultiRadioShowcase.host_Middle.wlan[3].mac packetSentToLower:vector(packetBytes) ETV
attr interpolationmode none
attr title "packets sent to lower layer, vector(packetBytes)"
vector 257 MultiRadioShowcase.host_Middle.wlan[3].mac.dcf frameSequenceActive:vector ETV
attr interpolationmode sample-hold
attr source count(frameSequenceStarted)-count(frameSequenceFinished)
attr title "frame sequence active, vector"
vector 258 MultiRadioShowcase.host_Middle.wlan[3].radio transmissionState:vector ETV
attr interpolationmode sample-hold
attr source transmissionStateChanged
attr title "Radio transmission state, vector"
vector 259 MultiRadioShowcase.host_Middle.wlan[3].mac.dcf packetSentToPeer:vector(packetBytes) ETV
attr interpolationmode none
attr title "packets sent, vector(packetBytes)"
vector 260 MultiRadioShowcase.host_Middle.wlan[3].mac.dcf packetSentToPeerUnicast:vector(packetBytes) ETV
attr interpolationmode none
attr source ieee80211Unicast(packetSentToPeer)
attr title "packets sent: unicast, vector(packetBytes)"
vector 261 MultiRadioShowcase.host_Middle.wlan[3].mac.dcf packetSentToPeerWithoutRetry:vector(packetBytes) ETV
attr interpolationmode none
attr source ieee80211NotRetry(packetSentToPeer)
attr title "packets sent: without retry, vector(packetBytes)"
vector 262 MultiRadioShowcase.host_Middle.wlan[0].mac.rx nav:vector ETV
attr interpolationmode linear
attr source navChanged
attr title "network allocation vector, vector"
vector 263 MultiRadioShowcase.host_Middle.wlan[0].mac.dcf packetDrop:vector(packetBytes) ETV
attr interpolationmode none
attr source packetDropped
attr title "packet drops, vector(packetBytes)"
vector 264 MultiRadioShowcase.host_Middle.wlan[0].mac.dcf packetDropNotAddressedToUs:vector(packetBytes) ETV
attr interpolationmode none
attr source packetDropReasonIsNotAddressedToUs(packetDropped)
attr title "packet drops: not addressed to us, vector(packetBytes)"
vector 265 MultiRadioShowcase.host_Middle.wlan[0].mac packetDrop:vector(packetBytes) ETV
attr interpolationmode none
attr source packetDropped
attr title "packet drops, vector(packetBytes)"
vector 266 MultiRadioShowcase.host_Middle.wlan[0].mac packetDropNotAddressedToUs:vector(packetBytes) ETV
attr interpolationmode none
attr source packetDropReasonIsNotAddressedToUs(packetDropped)
attr title "packet drops: not addressed to us, vector(packetBytes)"
vector 267 MultiRadioShowcase.host_End.wlan[0].mac.dcf packetReceivedFromPeer:vector(packetBytes) ETV
attr interpolationmode none
attr title "packets received, vector(packetBytes)"
vector 268 MultiRadioShowcase.host_End.wlan[0].mac.dcf packetReceivedFromPeerUnicast:vector(packetBytes) ETV
attr interpolationmode none
attr source ieee80211Unicast(packetReceivedFromPeer)
attr title "packets received: unicast, vector(packetBytes)"
vector 269 MultiRadioShowcase.host_End.wlan[0].mac.dcf packetReceivedFromPeerWithoutRetry:vector(packetBytes) ETV
attr interpolationmode none
attr source ieee80211NotRetry(packetReceivedFromPeer)
attr title "packets received: without retry, vector(packetBytes)"
vector 270 MultiRadioShowcase.host_End.wlan[0].mac.dcf datarateSelected:vector ETV
attr interpolationmode none
attr title "datarates selected, vector"
vector 271 MultiRadioShowcase.host_End.wlan[0].mac packetSentToUpper:vector(packetBytes) ETV
attr interpolationmode none
attr title "packets sent to upper layer, vector(packetBytes)"
vector 272 MultiRadioShowcase.host_End.wlan[1].mac.rx nav:vector ETV
attr interpolationmode linear
attr source navChanged
attr title "network allocation vector, vector"
vector 273 MultiRadioShowcase.host_End.wlan[2].mac.rx nav:vector ETV
attr interpolationmode linear
attr source navChanged
attr title "network allocation vector, vector"
vector 274 MultiRadioShowcase.host_End.wlan[3].mac.rx nav:vector ETV
attr interpolationmode linear
attr source navChanged
attr title "network allocation vector, vector"
vector 275 MultiRadioShowcase.host_End.wlan[4].mac.rx nav:vector ETV
attr interpolationmode linear
attr source navChanged
attr title "network allocation vector, vector"
vector 276 MultiRadioShowcase.host_End.udp packetReceived:vector(packetBytes) ETV
attr interpolationmode none
attr source packetReceived
attr title "packets received, vector(packetBytes)"
vector 277 MultiRadioShowcase.host_End.udp passedUpPk:vector(count) ETV
attr interpolationmode none
attr source packetSentToUpper
attr title "packets passed up, vector(count)"
vector 278 MultiRadioShowcase.host_End.app[0] packetReceived:vector(packetBytes) ETV
attr interpolationmode none
attr source packetReceived
attr title "packets received, vector(packetBytes)"
vector 279 MultiRadioShowcase.host_End.app[0] endToEndDelay:vector ETV
attr interpolationmode none
attr source dataAge(packetReceived)
attr title "end-to-end delay, vector"
attr unit s
vector 280 MultiRadioShowcase.host_End.app[0] rcvdPkSeqNo:vector ETV
attr interpolationmode none
attr source appPkSeqNo(packetReceived)
attr title "received packet sequence number, vector"
vector 281 MultiRadioShowcase.host_End.wlan[0].mac packetSentToLower:vector(packetBytes) ETV
attr interpolationmode none
attr title "packets sent to lower layer, vector(packetBytes)"
vector 282 MultiRadioShowcase.host_End.wlan[0].radio transmissionState:vector ETV
attr interpolationmode sample-hold
attr source transmissionStateChanged
attr title "Radio transmission state, vector"
vector 283 MultiRadioShowcase.host_End.wlan[0].mac.dcf packetSentToPeer:vector(packetBytes) ETV
attr interpolationmode none
attr title "packets sent, vector(packetBytes)"
vector 284 MultiRadioShowcase.host_End.wlan[0].mac.dcf packetSentToPeerUnicast:vector(packetBytes) ETV
attr interpolationmode none
attr source ieee80211Unicast(packetSentToPeer)
attr title "packets sent: unicast, vector(packetBytes)"
vector 285 MultiRadioShowcase.host_End.wlan[0].mac.dcf packetSentToPeerWithoutRetry:vector(packetBytes) ETV
attr interpolationmode none
attr source ieee80211NotRetry(packetSentToPeer)
attr title "packets sent: without retry, vector(packetBytes)"
vector 286 MultiRadioShowcase.host_Middle.wlan[3].mac.dcf packetReceivedFromPeer:vector(packetBytes) ETV
attr interpolationmode none
attr title "packets received, vector(packetBytes)"
vector 287 MultiRadioShowcase.host_Middle.wlan[3].mac.dcf packetReceivedFromPeerUnicast:vector(packetBytes) ETV
attr interpolationmode none
attr source ieee80211Unicast(packetReceivedFromPeer)
attr title "packets received: unicast, vector(packetBytes)"
vector 288 MultiRadioShowcase.host_Middle.wlan[3].mac.dcf packetReceivedFromPeerWithoutRetry:vector(packetBytes) ETV
attr interpolationmode none
attr source ieee80211NotRetry(packetReceivedFromPeer)
attr title "packets received: without retry, vector(packetBytes)"
vector 289 MultiRadioShowcase.host_Middle.wlan[3].mac.dcf.channelAccess.inProgressFrames queueingTime:vector ETV
attr interpolationmode none
attr source queueingTime(packetDequeued)
attr title "queueing times, vector"
vector 290 MultiRadioShowcase.host_Middle.wlan[4].mac.dcf.channelAccess.pendingQueue packetPopped:vector(packetBytes) ETV
attr interpolationmode none
attr title "packet popped, vector(packetBytes)"
vector 291 MultiRadioShowcase.host_Middle.wlan[4].mac.dcf.channelAccess.pendingQueue queueingTime:vector ETV
attr interpolationmode none
attr source queueingTime(packetPopped)
attr title "queueing times, vector"
attr unit s
vector 292 MultiRadioShowcase.host_Middle.wlan[4].mac.dcf.channelAccess.inProgressFrames queueLength:vector ETV
attr interpolationmode sample-hold
attr source "count(packetEnqueued) - count(packetDequeued)"
attr title "queue length, vector"
vector 293 MultiRadioShowcase.host_Middle.wlan[4].mac.dcf datarateSelected:vector ETV
attr interpolationmode none
attr title "datarates selected, vector"
vector 294 MultiRadioShowcase.host_Middle.wlan[4].mac packetSentToLower:vector(packetBytes) ETV
attr interpolationmode none
attr title "packets sent to lower layer, vector(packetBytes)"
vector 295 MultiRadioShowcase.host_Middle.wlan[4].mac.dcf frameSequenceActive:vector ETV
attr interpolationmode sample-hold
attr source count(frameSequenceStarted)-count(frameSequenceFinished)
attr title "frame sequence active, vector"
vector 296 MultiRadioShowcase.host_Middle.wlan[4].radio transmissionState:vector ETV
attr interpolationmode sample-hold
attr source transmissionStateChanged
attr title "Radio transmission state, vector"
vector 297 MultiRadioShowcase.host_Middle.wlan[4].mac.dcf packetSentToPeer:vector(packetBytes) ETV
attr interpolationmode none
attr title "packets sent, vector(packetBytes)"
vector 298 MultiRadioShowcase.host_Middle.wlan[4].mac.dcf packetSentToPeerUnicast:vector(packetBytes) ETV
attr interpolationmode none
attr source ieee80211Unicast(packetSentToPeer)
attr title "packets sent: unicast, vector(packetBytes)"
vector 299 MultiRadioShowcase.host_Middle.wlan[4].mac.dcf packetSentToPeerWithoutRetry:vector(packetBytes) ETV
attr interpolationmode none
attr source ieee80211NotRetry(packetSentToPeer)
attr title "packets sent: without retry, vector(packetBytes)"
vector 300 MultiRadioShowcase.host_Middle.wlan[4].mac.dcf packetReceivedFromPeer:vector(packetBytes) ETV
attr interpolationmode none
attr title "packets received, vector(packetBytes)"
vector 301 MultiRadioShowcase.host_Middle.wlan[4].mac.dcf packetReceivedFromPeerUnicast:vector(packetBytes) ETV
attr interpolationmode none
attr source ieee80211Unicast(packetReceivedFromPeer)
attr title "packets received: unicast, vector(packetBytes)"
vector 302 MultiRadioShowcase.host_Middle.wlan[4].mac.dcf packetReceivedFromPeerWithoutRetry:vector(packetBytes) ETV
attr interpolationmode none
attr source ieee80211NotRetry(packetReceivedFromPeer)
attr title "packets received: without retry, vector(packetBytes)"
vector 303 MultiRadioShowcase.host_Middle.wlan[4].mac.dcf.channelAccess.inProgressFrames queueingTime:vector ETV
attr interpolationmode none
attr source queueingTime(packetDequeued)
attr title "queueing times, vector"
vector 304 MultiRadioShowcase.host_Middle.wlan[1].mac packetReceivedFromUpper:vector(packetBytes) ETV
attr interpolationmode none
attr title "packets received from upper layer, vector(packetBytes)"
vector 305 MultiRadioShowcase.host_Middle.wlan[1].mac.dcf.channelAccess.pendingQueue packetPushed:vector(packetBytes) ETV
attr interpolationmode none
attr title "packet pushed, vector(packetBytes)"
vector 306 MultiRadioShowcase.host_Middle.wlan[1].mac.dcf.channelAccess.pendingQueue queueLength:vector ETV
attr interpolationmode sample-hold
attr source "count(packetPushed) - count(packetPopped) - count(packetRemoved) - count(packetDropped)"
attr title "queue length, vector"
vector 307 MultiRadioShowcase.host_Middle.wlan[1].mac.dcf.channelAccess.contention backoffPeriodGenerated:vector ETV
attr interpolationmode none
attr title "backoff periods, vector"
vector 308 MultiRadioShowcase.host_Middle.wlan[1].mac.dcf.channelAccess.contention backoffActive:vector ETV
attr interpolationmode sample-hold
attr source count(backoffStarted)-count(backoffStopped)
attr title "backoff active, vector"
vector 309 MultiRadioShowcase.host_Middle.wlan[1].mac.dcf.channelAccess.pendingQueue packetPopped:vector(packetBytes) ETV
attr interpolationmode none
attr title "packet popped, vector(packetBytes)"
vector 310 MultiRadioShowcase.host_Middle.wlan[1].mac.dcf.channelAccess.pendingQueue queueingTime:vector ETV
attr interpolationmode none
attr source queueingTime(packetPopped)
attr title "queueing times, vector"
attr unit s
vector 311 MultiRadioShowcase.host_Middle.wlan[1].mac.dcf.channelAccess.inProgressFrames queueLength:vector ETV
attr interpolationmode sample-hold
attr source "count(packetEnqueued) - count(packetDequeued)"
attr title "queue length, vector"
vector 312 MultiRadioShowcase.host_Middle.wlan[1].mac.dcf datarateSelected:vector ETV
attr interpolationmode none
attr title "datarates selected, vector"
vector 313 MultiRadioShowcase.host_Middle.wlan[1].mac packetSentToLower:vector(packetBytes) ETV
attr interpolationmode none
attr title "packets sent to lower layer, vector(packetBytes)"
vector 314 MultiRadioShowcase.host_Middle.wlan[1].mac.dcf frameSequenceActive:vector ETV
attr interpolationmode sample-hold
attr source count(frameSequenceStarted)-count(frameSequenceFinished)
attr title "frame sequence active, vector"
vector 315 MultiRadioShowcase.host_Middle.wlan[1].radio transmissionState:vector ETV
attr interpolationmode sample-hold
attr source transmissionStateChanged
attr title "Radio transmission state, vector"
vector 316 MultiRadioShowcase.host_Middle.wlan[1].mac.dcf packetSentToPeer:vector(packetBytes) ETV
attr interpolationmode none
attr title "packets sent, vector(packetBytes)"
vector 317 MultiRadioShowcase.host_Middle.wlan[1].mac.dcf packetSentToPeerUnicast:vector(packetBytes) ETV
attr interpolationmode none
attr source ieee80211Unicast(packetSentToPeer)
attr title "packets sent: unicast, vector(packetBytes)"
vector 318 MultiRadioShowcase.host_Middle.wlan[1].mac.dcf packetSentToPeerWithoutRetry:vector(packetBytes) ETV
attr interpolationmode none
attr source ieee80211NotRetry(packetSentToPeer)
attr title "packets sent: without retry, vector(packetBytes)"
vector 319 MultiRadioShowcase.host_Middle.wlan[1].mac.dcf packetReceivedFromPeer:vector(packetBytes) ETV
attr interpolationmode none
attr title "packets received, vector(packetBytes)"
vector 320 MultiRadioShowcase.host_Middle.wlan[1].mac.dcf packetReceivedFromPeerUnicast:vector(packetBytes) ETV
attr interpolationmode none
attr source ieee80211Unicast(packetReceivedFromPeer)
attr title "packets received: unicast, vector(packetBytes)"
vector 321 MultiRadioShowcase.host_Middle.wlan[1].mac.dcf packetReceivedFromPeerWithoutRetry:vector(packetBytes) ETV
attr interpolationmode none
attr source ieee80211NotRetry(packetReceivedFromPeer)
attr title "packets received: without retry, vector(packetBytes)"
vector 322 MultiRadioShowcase.host_Middle.wlan[1].mac.dcf.channelAccess.inProgressFrames queueingTime:vector ETV
attr interpolationmode none
attr source queueingTime(packetDequeued)
attr title "queueing times, vector"
0	68941 24 0 0 0 0 3 0 2 2 4
1	68965 8 0 0 0 0 1 0 0 0 0
2	68973 24 0 0 0 0 3 0 2 2 4
3	68997 8 0 0 0 0 1 0 0 0 0
4	69005 24 0 0 0 0 3 0 2 2 4
5	69029 8 0 0 0 0 1 0 0 0 0
6	69037 55 0 46 0 0.000572 5 0 3 7 17
7	69092 8 0 0 0 0 1 0 0 0 0
8	69100 24 0 0 0 0 3 0 2 2 4
9	69124 8 0 0 0 0 1 0 0 0 0
10	69132 216 0 959 0 0.010240654637 11 0 3 22 56
11	69348 9 0 0 0 0 1 0 0 0 0
12	69357 124 0 1024 0 0.011072654637 7 0 3 12 30
13	69481 9 0 0 0 0 1 0 0 0 0
14	69490 27 0 0 0 0 3 0 2 2 4
15	69517 9 0 0 0 0 1 0 0 0 0
16	69526 75 0 322 0 0.001990292714 5 0 3 7 17
17	69601 9 0 0 0 0 1 0 0 0 0
18	69610 75 0 460 0 0.002670778238 5 0 3 7 17
19	69685 9 0 0 0 0 1 0 0 0 0
20	69694 165 0 826 0 0.005232433291 9 0 3 17 43
21	69859 9 0 0 0 0 1 0 0 0 0
22	69868 27 0 0 0 0 3 0 2 2 4
23	69895 9 0 0 0 0 1 0 0 0 0
24	69904 27 0 0 0 0 3 0 2 2 4
25	69931 9 0 0 0 0 1 0 0 0 0
26	69940 27 0 0 0 0 3 0 2 2 4
27	69967 9 0 0 0 0 1 0 0 0 0
28	69976 27 0 0 0 0 3 0 2 2 4
29	70003 9 0 0 0 0 1 0 0 0 0
30	70012 27 0 0 0 0 3 0 2 2 4
31	70039 9 0 0 0 0 1 0 0 0 0
32	70048 171 0 884 0 0.010194576265 9 0 3 17 43
33	70219 9 0 0 0 0 1 0 0 0 0
34	70228 27 0 0 0 0 3 0 2 2 4
35	70255 9 0 0 0 0 1 0 0 0 0
36	70264 27 0 0 0 0 3 0 2 2 4
37	70291 9 0 0 0 0 1 0 0 0 0
38	70300 27 0 0 0 0 3 0 2 2 4
39	70327 9 0 0 0 0 1 0 0 0 0
40	70336 542 0 1009 0 0.010692790607 24 1 3 48 120
41	70878 542 0 1010 0 0.010692790607 24 1 3 48 120
42	71420 542 0 1011 0 0.010692790607 24 1 3 48 120
43	71962 542 0 1012 0 0.010692790607 24 0 3 45 111
44	72504 542 0 1013 0 0.010692790607 24 1 3 48 120
45	73046 724 0 1020 0 0.011072654637 31 0 3 49 115
46	73770 723 0 1024 0 0.011072654637 31 0 3 55 133
47	74493 724 0 1021 0 0.011072654637 31 1 3 61 151
48	75217 724 0 1022 0 0.011072654637 31 0 3 58 142
49	75941 724 0 1023 0 0.011072654637 31 0 3 58 142
50	76665 501 0 1014 0 0.010692897399 22 0 3 35 83
51	77166 501 0 1015 0 0.010692897399 22 1 3 44 110
52	77667 501 0 1016 0 0.010692897399 22 1 3 44 110
53	78168 502 0 1017 0 0.010692897399 22 1 3 44 110
54	78670 502 0 1018 0 0.010692897399 22 1 3 44 110
55	79172 557 0 1004 0 0.010692733009 24 1 3 48 120
56	79729 557 0 1005 0 0.010692733009 24 0 3 39 93
57	80286 557 0 1006 0 0.010692733009 24 1 3 48 120
58	80843 557 0 1007 0 0.010692733009 24 1 3 48 120
59	81400 557 0 1008 0 0.010692733009 24 1 3 48 120
60	81957 10 0 0 0 0 1 31 31 31 961
61	81967 10 0 0 0 0 1 31 31 31 961
62	81977 10 0 0 0 0 1 31 31 31 961
63	81987 10 0 0 0 0 1 31 31 31 961
64	81997 10 0 0 0 0 1 31 31 31 961
65	82007 10 0 0 0 0 1 31 31 31 961
66	82017 10 0 0 0 0 1 31 31 31 961
67	82027 10 0 0 0 0 1 31 31 31 961
68	82037 10 0 0 0 0 1 31 31 31 961
69	82047 10 0 0 0 0 1 31 31 31 961
70	82057 10 0 0 0 0 1 31 31 31 961
71	82067 10 0 0 0 0 1 31 31 31 961
72	82077 10 0 0 0 0 1 31 31 31 961
73	82087 10 0 0 0 0 1 31 31 31 961
74	82097 10 0 0 0 0 1 31 31 31 961
75	82107 10 0 0 0 0 1 31 31 31 961
76	82117 10 0 0 0 0 1 31 31 31 961
77	82127 10 0 0 0 0 1 31 31 31 961
78	82137 10 0 0 0 0 1 31 31 31 961
79	82147 10 0 0 0 0 1 31 31 31 961
80	82157 79 1 851 0.000005838467 0.009812576265 3 1000 1000 3000 3000000
81	82236 79 3 852 0.000005838467 0.009812576265 3 1008 1008 3024 3048192
82	82315 79 6 855 0.000005838467 0.009812576265 3 1036 1036 3108 3219888
83	82394 79 6 855 0.000005838467 0.009812576265 3 1064 1064 3192 3396288
84	82473 142 6 857 0.000005838467 0.009812576265 6 0 1 3 3
85	82615 71 6 855 0.000005838467 0.009812576265 3 5 26 40 782
86	82686 235 6 856 0.000005838467 0.009812576265 10 0 1 5 5
87	82921 26 10 10 0.000185960421 0.000185960421 1 1000 1000 1000 1000000
88	82947 26 12 12 0.000185960421 0.000185960421 1 1008 1008 1008 1016064
89	82973 26 15 15 0.000185960421 0.000185960421 1 1036 1036 1036 1073296
90	82999 26 15 15 0.000185960421 0.000185960421 1 1064 1064 1064 1132096
91	83025 39 15 19 0.000185960421 0.00019 2 0 1 1 1
92	83064 23 15 15 0.000185960421 0.000185960421 1 7 7 7 49
93	83087 39 15 18 0.000185960421 0.00019 2 0 1 1 1
94	83126 19 19 19 0.00019 0.00019 1 1064 1064 1064 1132096
95	83145 27 19 19 0.00019 0.00019 1 4.039579e-06 4.039579e-06 4.039579e-06 1.6318198497241e-11
96	83172 39 19 144 0.00019 0.00062027194 2 0 1 1 1
97	83211 23 19 19 0.00019 0.00019 1 24000000 24000000 24000000 5.76e+14
98	83234 19 19 19 0.00019 0.00019 1 1064 1064 1064 1132096
99	83253 39 19 144 0.00019 0.00062027194 2 0 1 1 1
100	83292 70 20 46 0.00019 0.000572 4 0 2 4 6
101	83362 21 41 41 0.000572 0.000572 1 1064 1064 1064 1132096
102	83383 21 41 41 0.000572 0.000572 1 1064 1064 1064 1132096
103	83404 21 41 41 0.000572 0.000572 1 1064 1064 1064 1132096
104	83425 544 41 948 0.000572 0.01023875639 21 0 4.4e-05 0.000308 1.3552e-08
105	83969 291 47 979 0.000572 0.010242790607 11 14 1064 7504 7925456
106	84260 544 47 945 0.000572 0.01023875639 21 0 4.4e-05 0.000308 1.3552e-08
107	84804 291 47 979 0.000572 0.010242790607 11 14 1064 7504 7925456
108	85095 291 47 979 0.000572 0.010242790607 11 14 1064 7504 7925456
109	85386 291 47 979 0.000572 0.010242790607 11 14 1064 7504 7925456
110	85677 291 47 979 0.000572 0.010242790607 11 14 1064 7504 7925456
111	85968 291 48 980 0.000572 0.010242790607 11 14 1064 7504 7925456
112	86259 544 48 946 0.000572 0.01023875639 21 0 4.4e-05 0.000308 1.3552e-08
113	86803 291 48 980 0.000572 0.010242790607 11 14 1064 7504 7925456
114	87094 291 48 980 0.000572 0.010242790607 11 14 1064 7504 7925456
115	87385 291 48 980 0.000572 0.010242790607 11 14 1064 7504 7925456
116	87676 291 48 980 0.000572 0.010242790607 11 14 1064 7504 7925456
117	87967 291 49 981 0.000572 0.010242790607 11 14 1064 7504 7925456
118	88258 544 49 947 0.000572 0.01023875639 21 0 4.4e-05 0.000308 1.3552e-08
119	88802 291 49 981 0.000572 0.010242790607 11 14 1064 7504 7925456
120	89093 291 49 981 0.000572 0.010242790607 11 14 1064 7504 7925456
121	89384 291 49 981 0.000572 0.010242790607 11 14 1064 7504 7925456
122	89675 291 49 981 0.000572 0.010242790607 11 14 1064 7504 7925456
123	89966 291 50 983 0.000572 0.010242790607 11 14 1064 7504 7925456
124	90257 544 50 949 0.000572 0.01023875639 21 0 4.4e-05 0.000308 1.3552e-08
125	90801 291 50 983 0.000572 0.010242790607 11 14 1064 7504 7925456
126	91092 291 50 983 0.000572 0.010242790607 11 14 1064 7504 7925456
127	91383 291 50 983 0.000572 0.010242790607 11 14 1064 7504 7925456
128	91674 291 50 983 0.000572 0.010242790607 11 14 1064 7504 7925456
129	91965 298 56 969 0.000572180125 0.010242733009 11 14 1064 7504 7925456
130	92263 562 56 941 0.000572180125 0.010238576265 21 0 4.4e-05 0.000308 1.3552e-08
131	92825 298 56 969 0.000572180125 0.010242733009 11 14 1064 7504 7925456
132	93123 298 56 969 0.000572180125 0.010242733009 11 14 1064 7504 7925456
133	93421 298 56 969 0.000572180125 0.010242733009 11 14 1064 7504 7925456
134	93719 298 56 969 0.000572180125 0.010242733009 11 14 1064 7504 7925456
135	94017 214 57 970 0.000572180125 0.010242733009 8 14 1064 4312 4529168
136	94231 562 57 940 0.000572180125 0.010238576265 21 0 4.4e-05 0.000308 1.3552e-08
137	94793 136 57 752 0.000572180125 0.005188268901 5 14 1064 4270 4528580
138	94929 136 57 752 0.000572180125 0.005188268901 5 14 1064 4270 4528580
139	95065 136 57 752 0.000572180125 0.005188268901 5 14 1064 4270 4528580
140	95201 136 57 752 0.000572180125 0.005188268901 5 14 1064 4270 4528580
141	95337 298 58 971 0.000572180125 0.010242733009 11 14 1064 7504 7925456
142	95635 562 58 942 0.000572180125 0.010238576265 21 0 4.4e-05 0.000308 1.3552e-08
143	96197 298 58 971 0.000572180125 0.010242733009 11 14 1064 7504 7925456
144	96495 298 58 971 0.000572180125 0.010242733009 11 14 1064 7504 7925456
145	96793 298 58 971 0.000572180125 0.010242733009 11 14 1064 7504 7925456
146	97091 298 58 971 0.000572180125 0.010242733009 11 14 1064 7504 7925456
147	97389 298 59 972 0.000572180125 0.010242733009 11 14 1064 7504 7925456
148	97687 562 59 943 0.000572180125 0.010238576265 21 0 4.4e-05 0.000308 1.3552e-08
149	98249 298 59 972 0.000572180125 0.010242733009 11 14 1064 7504 7925456
150	98547 298 59 972 0.000572180125 0.010242733009 11 14 1064 7504 7925456
151	98845 298 59 972 0.000572180125 0.010242733009 11 14 1064 7504 7925456
152	99143 298 59 972 0.000572180125 0.010242733009 11 14 1064 7504 7925456
153	99441 298 60 973 0.000572180125 0.010242733009 11 14 1064 7504 7925456
154	99739 562 60 944 0.000572180125 0.010238576265 21 0 4.4e-05 0.000308 1.3552e-08
155	100301 298 60 973 0.000572180125 0.010242733009 11 14 1064 7504 7925456
156	100599 298 60 973 0.000572180125 0.010242733009 11 14 1064 7504 7925456
157	100897 298 60 973 0.000572180125 0.010242733009 11 14 1064 7504 7925456
158	101195 298 60 973 0.000572180125 0.010242733009 11 14 1064 7504 7925456
159	101493 301 66 1025 0.00057413597 0.011072654637 11 14 1064 8554 9057356
160	101794 110 66 904 0.00057413597 0.010196654637 4 1064 1064 4256 4528384
161	101904 110 66 904 0.00057413597 0.010196654637 4 1064 1064 4256 4528384
162	102014 110 66 904 0.00057413597 0.010196654637 4 1064 1064 4256 4528384
163	102124 126 66 904 0.00057413597 0.010196654637 4 24000000 24000000 96000000 2.304e+15
164	102250 110 66 904 0.00057413597 0.010196654637 4 1036 1036 4144 4293184
165	102360 347 67 960 0.00057413597 0.010240654637 13 14 1064 6482 6793948
166	102707 620 67 1019 0.00057413597 0.011072654637 23 0 4.4e-05 0.000352 1.5488e-08
167	103327 321 67 960 0.00057413597 0.010240654637 12 14 1064 6468 6793752
168	103648 321 67 960 0.00057413597 0.010240654637 12 14 1064 6468 6793752
169	103969 321 67 960 0.00057413597 0.010240654637 12 14 1064 6468 6793752
170	104290 321 67 960 0.00057413597 0.010240654637 12 14 1064 6468 6793752
171	104611 404 68 1026 0.00057413597 0.011072654637 15 14 1064 8610 9058140
172	105015 620 68 1026 0.00057413597 0.011072654637 23 0 4.4e-05 0.000352 1.5488e-08
173	105635 404 68 1026 0.00057413597 0.011072654637 15 14 1064 8610 9058140
174	106039 404 68 1026 0.00057413597 0.011072654637 15 14 1064 8610 9058140
175	106443 404 68 1026 0.00057413597 0.011072654637 15 14 1064 8610 9058140
176	106847 404 68 1026 0.00057413597 0.011072654637 15 14 1064 8610 9058140
177	107251 376 69 1027 0.00057413597 0.011072654637 14 14 1064 7546 7926044
178	107627 620 69 1027 0.00057413597 0.011072654637 23 0 4.4e-05 0.000352 1.5488e-08
179	108247 350 69 1027 0.00057413597 0.011072654637 13 14 1064 7532 7925848
180	108597 350 69 1027 0.00057413597 0.011072654637 13 14 1064 7532 7925848
181	108947 350 69 1027 0.00057413597 0.011072654637 13 14 1064 7532 7925848
182	109297 350 69 1027 0.00057413597 0.011072654637 13 14 1064 7532 7925848
183	109647 376 70 1028 0.00057413597 0.011072654637 14 14 1064 7546 7926044
184	110023 620 70 1028 0.00057413597 0.011072654637 23 0 4.4e-05 0.000352 1.5488e-08
185	110643 350 70 1028 0.00057413597 0.011072654637 13 14 1064 7532 7925848
186	110993 350 70 1028 0.00057413597 0.011072654637 13 14 1064 7532 7925848
187	111343 350 70 1028 0.00057413597 0.011072654637 13 14 1064 7532 7925848
188	111693 350 70 1028 0.00057413597 0.011072654637 13 14 1064 7532 7925848
[...]
225	118263 260 155 993 0.000620378732 0.010242897399 10 14 1064 3290 3397660
226	118523 260 155 993 0.000620378732 0.010242897399 10 14 1064 3290 3397660
227	118783 260 155 993 0.000620378732 0.010242897399 10 14 1064 3290 3397660
228	119043 260 155 993 0.000620378732 0.010242897399 10 14 1064 3290 3397660
229	119303 84 157 857 0.001050214342 0.009812576265 3 1064 1064 3192 3396288
230	119387 88 157 857 0.001050214342 0.009812576265 3 0 0.001044375875 0.001044375875 1.090720968282e-06
231	119475 150 157 970 0.001050214342 0.010242733009 6 0 1 3 3
232	119625 96 157 857 0.001050214342 0.009812576265 3 24000000 24000000 72000000 1.728e+15
233	119721 84 157 857 0.001050214342 0.009812576265 3 1064 1064 3192 3396288
234	119805 150 157 970 0.001050214342 0.010242733009 6 0 1 3 3
235	119955 300 158 884 0.001050214342 0.010194576265 12 0 2 12 18
236	120255 84 179 879 0.001432214342 0.010194576265 3 1064 1064 3192 3396288
237	120339 84 179 879 0.001432214342 0.010194576265 3 1064 1064 3192 3396288
238	120423 84 179 879 0.001432214342 0.010194576265 3 1064 1064 3192 3396288
239	120507 245 197 982 0.001432394467 0.010242790607 9 14 1064 6426 6793164
240	120752 245 197 982 0.001432394467 0.010242790607 9 14 1064 6426 6793164
241	120997 245 197 982 0.001432394467 0.010242790607 9 14 1064 6426 6793164
242	121242 245 197 982 0.001432394467 0.010242790607 9 14 1064 6426 6793164
243	121487 28 212 212 0.001434292714 0.001434292714 1 1036 1036 1036 1073296
244	121515 28 212 212 0.001434292714 0.001434292714 1 1064 1064 1064 1132096
245	121543 50 212 433 0.001434292714 0.002288778238 2 0 1 1 1
246	121593 26 212 212 0.001434292714 0.001434292714 1 14 14 14 196
247	121619 150 258 432 0.001478292714 0.002288778238 6 0 1 3 3
248	121769 78 270 970 0.001480371086 0.010242733009 3 14 14 42 588
249	121847 78 270 970 0.001480371086 0.010242733009 3 14 14 42 588
250	121925 78 270 970 0.001480371086 0.010242733009 3 14 14 42 588
251	122003 114 270 970 0.001480371086 0.010242733009 3 0.000430156744 0.000430156744 0.001290470232 5.5510447322604e-07
252	122117 28 295 295 0.001608292714 0.001608292714 1 1064 1064 1064 1132096
253	122145 38 295 295 0.001608292714 0.001608292714 1 0.001034156744 0.001034156744 0.001034156744 1.0694801711607e-06
254	122183 50 295 420 0.001608292714 0.002038778238 2 0 1 1 1
255	122233 32 295 295 0.001608292714 0.001608292714 1 24000000 24000000 24000000 5.76e+14
256	122265 28 295 295 0.001608292714 0.001608292714 1 1064 1064 1064 1132096
257	122293 50 295 420 0.001608292714 0.002038778238 2 0 1 1 1
258	122343 100 296 322 0.001608292714 0.001990292714 4 0 2 4 6
259	122443 28 317 317 0.001990292714 0.001990292714 1 1064 1064 1064 1132096
260	122471 28 317 317 0.001990292714 0.001990292714 1 1064 1064 1064 1132096
261	122499 28 317 317 0.001990292714 0.001990292714 1 1064 1064 1064 1132096
262	122527 301 323 1025 0.001990292714 0.011072654637 11 0 4.4e-05 0.000176 7.744e-09
263	122828 191 323 1025 0.001990292714 0.011072654637 7 14 1064 4298 4528972
264	123019 191 323 1025 0.001990292714 0.011072654637 7 14 1064 4298 4528972
265	123210 191 323 1025 0.001990292714 0.011072654637 7 14 1064 4298 4528972
266	123401 191 323 1025 0.001990292714 0.011072654637 7 14 1064 4298 4528972
267	123592 81 352 771 0.001992535476 0.005188433291 3 1064 1064 3192 3396288
268	123673 81 352 771 0.001992535476 0.005188433291 3 1064 1064 3192 3396288
269	123754 81 352 771 0.001992535476 0.005188433291 3 1064 1064 3192 3396288
270	123835 93 352 771 0.001992535476 0.005188433291 3 24000000 24000000 72000000 1.728e+15
271	123928 81 352 771 0.001992535476 0.005188433291 3 1036 1036 3108 3219888
272	124009 234 353 817 0.001992535476 0.005232433291 9 0 4.4e-05 0.000132 5.808e-09
273	124243 234 354 818 0.001992535476 0.005232433291 9 0 4.4e-05 0.000132 5.808e-09
274	124477 234 355 819 0.001992535476 0.005232433291 9 0 4.4e-05 0.000132 5.808e-09
275	124711 234 356 820 0.001992535476 0.005232433291 9 0 4.4e-05 0.000132 5.808e-09
276	124945 81 359 778 0.001992535476 0.005188433291 3 1008 1008 3024 3048192
277	125026 72 359 778 0.001992535476 0.005188433291 3 1 3 6 14
278	125098 81 360 779 0.001992535476 0.005188433291 3 1000 1000 3000 3000000
279	125179 111 360 779 0.001992535476 0.005188433291 3 0.001362321134 0.002667182533 0.005836078722 1.2233494965832e-05
280	125290 72 360 779 0.001992535476 0.005188433291 3 0 1 1 1
281	125362 75 361 780 0.002002535476 0.005198433291 3 14 14 42 588
282	125437 288 362 826 0.002002535476 0.005232433291 12 0 2 12 18
283	125725 75 402 821 0.002036535476 0.005232433291 3 14 14 42 588
284	125800 75 402 821 0.002036535476 0.005232433291 3 14 14 42 588
285	125875 75 402 821 0.002036535476 0.005232433291 3 14 14 42 588
286	125950 26 420 420 0.002038778238 0.002038778238 1 14 14 14 196
287	125976 26 420 420 0.002038778238 0.002038778238 1 14 14 14 196
288	126002 26 420 420 0.002038778238 0.002038778238 1 14 14 14 196
289	126028 38 420 420 0.002038778238 0.002038778238 1 0.000430485524 0.000430485524 0.000430485524 1.8531778637355e-07
290	126066 28 433 433 0.002288778238 0.002288778238 1 1064 1064 1064 1132096
291	126094 38 433 433 0.002288778238 0.002288778238 1 0.000854485524 0.000854485524 0.000854485524 7.3014551072555e-07
292	126132 50 433 559 0.002288778238 0.002719263762 2 0 1 1 1
293	126182 32 433 433 0.002288778238 0.002288778238 1 24000000 24000000 24000000 5.76e+14
294	126214 28 433 433 0.002288778238 0.002288778238 1 1064 1064 1064 1132096
295	126242 50 433 559 0.002288778238 0.002719263762 2 0 1 1 1
296	126292 100 434 460 0.002288778238 0.002670778238 4 0 2 4 6
297	126392 28 455 455 0.002670778238 0.002670778238 1 1064 1064 1064 1132096
298	126420 28 455 455 0.002670778238 0.002670778238 1 1064 1064 1064 1132096
299	126448 28 455 455 0.002670778238 0.002670778238 1 1064 1064 1064 1132096
300	126476 26 559 559 0.002719263762 0.002719263762 1 14 14 14 196
301	126502 26 559 559 0.002719263762 0.002719263762 1 14 14 14 196
302	126528 26 559 559 0.002719263762 0.002719263762 1 14 14 14 196
303	126554 38 559 559 0.002719263762 0.002719263762 1 0.000430485524 0.000430485524 0.000430485524 1.8531778637355e-07
304	126592 56 631 912 0.004210190529 0.010196654637 2 1036 1036 2072 2146592
305	126648 56 631 912 0.004210190529 0.010196654637 2 1064 1064 2128 2264192
306	126704 100 631 997 0.004210190529 0.010690654637 4 0 1 2 2
307	126804 52 631 912 0.004210190529 0.010196654637 2 20 25 45 1025
308	126856 100 674 996 0.004254190529 0.010690654637 4 0 1 2 2
309	126956 56 714 997 0.004804190529 0.010690654637 2 1064 1064 2128 2264192
310	127012 64 714 997 0.004804190529 0.010690654637 2 0.000494 0.000594 0.001088 5.96872e-07
311	127076 75 714 997 0.004804190529 0.010690654637 3 0 1 2 2
312	127151 64 714 997 0.004804190529 0.010690654637 2 24000000 24000000 48000000 1.152e+15
313	127215 56 714 997 0.004804190529 0.010690654637 2 1064 1064 2128 2264192
314	127271 75 714 997 0.004804190529 0.010690654637 3 0 1 2 2
315	127346 202 715 1024 0.004804190529 0.011072654637 8 0 2 8 12
316	127548 57 736 1019 0.005186190529 0.011072654637 2 1064 1064 2128 2264192
317	127605 57 736 1019 0.005186190529 0.011072654637 2 1064 1064 2128 2264192
318	127662 57 736 1019 0.005186190529 0.011072654637 2 1064 1064 2128 2264192
319	127719 26 837 837 0.005234676053 0.005234676053 1 14 14 14 196
320	127745 26 837 837 0.005234676053 0.005234676053 1 14 14 14 196
321	127771 26 837 837 0.005234676053 0.005234676053 1 14 14 14 196
322	127797 38 837 837 0.005234676053 0.005234676053 1 0.000430485524 0.000430485524 0.000430485524 1.8531778637355e-07
20	127835 50 1064 1109 0.011084897399 0.011118897399 2 2 3 5 13
40	127885 25 1039 1039 0.011074790607 0.011074790607 1 1 1 1 1
41	127910 25 1040 1040 0.011074790607 0.011074790607 1 1 1 1 1
42	127935 25 1041 1041 0.011074790607 0.011074790607 1 1 1 1 1
43	127960 25 1042 1042 0.011074790607 0.011074790607 1 1 1 1 1
44	127985 25 1043 1043 0.011074790607 0.011074790607 1 1 1 1 1
45	128010 50 1070 1114 0.011087140161 0.011121140161 2 1 3 4 10
46	128060 50 1071 1115 0.011087140161 0.011121140161 2 1 3 4 10
47	128110 50 1072 1116 0.011087140161 0.011121140161 2 1 3 4 10
48	128160 50 1073 1117 0.011087140161 0.011121140161 2 1 3 4 10
49	128210 50 1074 1118 0.011087140161 0.011121140161 2 1 3 4 10
50	128260 75 1049 1109 0.011074897399 0.011118897399 3 0 1 2 2
51	128335 75 1050 1105 0.011074897399 0.011118897399 3 1 3 5 11
52	128410 75 1051 1106 0.011074897399 0.011118897399 3 1 3 5 11
53	128485 75 1052 1107 0.011074897399 0.011118897399 3 1 3 5 11
54	128560 75 1053 1108 0.011074897399 0.011118897399 3 1 3 5 11
55	128635 25 1029 1029 0.011074733009 0.011074733009 1 1 1 1 1
56	128660 25 1030 1030 0.011074733009 0.011074733009 1 1 1 1 1
57	128685 25 1031 1031 0.011074733009 0.011074733009 1 1 1 1 1
58	128710 25 1032 1032 0.011074733009 0.011074733009 1 1 1 1 1
59	128735 25 1033 1033 0.011074733009 0.011074733009 1 1 1 1 1
104	128760 84 1047 1098 0.011074790607 0.011118790607 3 0 4.4e-05 4.4e-05 1.936e-09
105	128844 29 1044 1044 0.011074790607 0.011074790607 1 1064 1064 1064 1132096
106	128873 84 1044 1095 0.011074790607 0.011118790607 3 0 4.4e-05 4.4e-05 1.936e-09
107	128957 29 1044 1044 0.011074790607 0.011074790607 1 1064 1064 1064 1132096
108	128986 29 1044 1044 0.011074790607 0.011074790607 1 1064 1064 1064 1132096
109	129015 29 1044 1044 0.011074790607 0.011074790607 1 1064 1064 1064 1132096
110	129044 29 1044 1044 0.011074790607 0.011074790607 1 1064 1064 1064 1132096
111	129073 29 1045 1045 0.011074790607 0.011074790607 1 1064 1064 1064 1132096
112	129102 84 1045 1096 0.011074790607 0.011118790607 3 0 4.4e-05 4.4e-05 1.936e-09
113	129186 29 1045 1045 0.011074790607 0.011074790607 1 1064 1064 1064 1132096
114	129215 29 1045 1045 0.011074790607 0.011074790607 1 1064 1064 1064 1132096
115	129244 29 1045 1045 0.011074790607 0.011074790607 1 1064 1064 1064 1132096
116	129273 29 1045 1045 0.011074790607 0.011074790607 1 1064 1064 1064 1132096
117	129302 29 1046 1046 0.011074790607 0.011074790607 1 1064 1064 1064 1132096
118	129331 84 1046 1097 0.011074790607 0.011118790607 3 0 4.4e-05 4.4e-05 1.936e-09
119	129415 29 1046 1046 0.011074790607 0.011074790607 1 1064 1064 1064 1132096
120	129444 29 1046 1046 0.011074790607 0.011074790607 1 1064 1064 1064 1132096
121	129473 29 1046 1046 0.011074790607 0.011074790607 1 1064 1064 1064 1132096
122	129502 29 1046 1046 0.011074790607 0.011074790607 1 1064 1064 1064 1132096
123	129531 29 1048 1048 0.011074790607 0.011074790607 1 1064 1064 1064 1132096
124	129560 84 1048 1099 0.011074790607 0.011118790607 3 0 4.4e-05 4.4e-05 1.936e-09
125	129644 29 1048 1048 0.011074790607 0.011074790607 1 1064 1064 1064 1132096
126	129673 29 1048 1048 0.011074790607 0.011074790607 1 1064 1064 1064 1132096
127	129702 29 1048 1048 0.011074790607 0.011074790607 1 1064 1064 1064 1132096
128	129731 29 1048 1048 0.011074790607 0.011074790607 1 1064 1064 1064 1132096
129	129760 29 1034 1034 0.011074733009 0.011074733009 1 1064 1064 1064 1132096
130	129789 84 1034 1090 0.011074733009 0.011118733009 3 0 4.4e-05 4.4e-05 1.936e-09
131	129873 29 1034 1034 0.011074733009 0.011074733009 1 1064 1064 1064 1132096
132	129902 29 1034 1034 0.011074733009 0.011074733009 1 1064 1064 1064 1132096
133	129931 29 1034 1034 0.011074733009 0.011074733009 1 1064 1064 1064 1132096
134	129960 29 1034 1034 0.011074733009 0.011074733009 1 1064 1064 1064 1132096
135	129989 29 1035 1035 0.011074733009 0.011074733009 1 1064 1064 1064 1132096
136	130018 84 1035 1091 0.011074733009 0.011118733009 3 0 4.4e-05 4.4e-05 1.936e-09
137	130102 29 1035 1035 0.011074733009 0.011074733009 1 1064 1064 1064 1132096
138	130131 29 1035 1035 0.011074733009 0.011074733009 1 1064 1064 1064 1132096
139	130160 29 1035 1035 0.011074733009 0.011074733009 1 1064 1064 1064 1132096
140	130189 29 1035 1035 0.011074733009 0.011074733009 1 1064 1064 1064 1132096
141	130218 29 1036 1036 0.011074733009 0.011074733009 1 1064 1064 1064 1132096
142	130247 84 1036 1092 0.011074733009 0.011118733009 3 0 4.4e-05 4.4e-05 1.936e-09
143	130331 29 1036 1036 0.011074733009 0.011074733009 1 1064 1064 1064 1132096
144	130360 29 1036 1036 0.011074733009 0.011074733009 1 1064 1064 1064 1132096
145	130389 29 1036 1036 0.011074733009 0.011074733009 1 1064 1064 1064 1132096
146	130418 29 1036 1036 0.011074733009 0.011074733009 1 1064 1064 1064 1132096
147	130447 29 1037 1037 0.011074733009 0.011074733009 1 1064 1064 1064 1132096
148	130476 84 1037 1093 0.011074733009 0.011118733009 3 0 4.4e-05 4.4e-05 1.936e-09
149	130560 29 1037 1037 0.011074733009 0.011074733009 1 1064 1064 1064 1132096
150	130589 29 1037 1037 0.011074733009 0.011074733009 1 1064 1064 1064 1132096
151	130618 29 1037 1037 0.011074733009 0.011074733009 1 1064 1064 1064 1132096
152	130647 29 1037 1037 0.011074733009 0.011074733009 1 1064 1064 1064 1132096
153	130676 29 1038 1038 0.011074733009 0.011074733009 1 1064 1064 1064 1132096
154	130705 84 1038 1094 0.011074733009 0.011118733009 3 0 4.4e-05 4.4e-05 1.936e-09
155	130789 29 1038 1038 0.011074733009 0.011074733009 1 1064 1064 1064 1132096
156	130818 29 1038 1038 0.011074733009 0.011074733009 1 1064 1064 1064 1132096
157	130847 29 1038 1038 0.011074733009 0.011074733009 1 1064 1064 1064 1132096
158	130876 29 1038 1038 0.011074733009 0.011074733009 1 1064 1064 1064 1132096
159	130905 27 1119 1119 0.011121140161 0.011121140161 1 14 14 14 196
165	130932 27 1120 1120 0.011121140161 0.011121140161 1 14 14 14 196
166	130959 26 1085 1085 0.011116654637 0.011116654637 1 0 0 0 0
171	130985 27 1121 1121 0.011121140161 0.011121140161 1 14 14 14 196
172	131012 26 1087 1087 0.011116654637 0.011116654637 1 0 0 0 0
173	131038 27 1121 1121 0.011121140161 0.011121140161 1 14 14 14 196
174	131065 27 1121 1121 0.011121140161 0.011121140161 1 14 14 14 196
175	131092 27 1121 1121 0.011121140161 0.011121140161 1 14 14 14 196
176	131119 27 1121 1121 0.011121140161 0.011121140161 1 14 14 14 196
177	131146 27 1122 1122 0.011121140161 0.011121140161 1 14 14 14 196
178	131173 26 1088 1088 0.011116654637 0.011116654637 1 0 0 0 0
179	131199 27 1122 1122 0.011121140161 0.011121140161 1 14 14 14 196
180	131226 27 1122 1122 0.011121140161 0.011121140161 1 14 14 14 196
181	131253 27 1122 1122 0.011121140161 0.011121140161 1 14 14 14 196
182	131280 27 1122 1122 0.011121140161 0.011121140161 1 14 14 14 196
183	131307 27 1123 1123 0.011121140161 0.011121140161 1 14 14 14 196
184	131334 26 1089 1089 0.011116654637 0.011116654637 1 0 0 0 0
185	131360 27 1123 1123 0.011121140161 0.011121140161 1 14 14 14 196
186	131387 27 1123 1123 0.011121140161 0.011121140161 1 14 14 14 196
187	131414 27 1123 1123 0.011121140161 0.011121140161 1 14 14 14 196
188	131441 27 1123 1123 0.011121140161 0.011121140161 1 14 14 14 196
199	131468 29 1047 1047 0.011074790607 0.011074790607 1 1064 1064 1064 1132096
204	131497 29 1054 1054 0.011074897399 0.011074897399 1 1064 1064 1064 1132096
209	131526 56 1055 1110 0.011074897399 0.011118897399 2 14 1064 1078 1132292
210	131582 56 1055 1110 0.011074897399 0.011118897399 2 14 1064 1078 1132292
211	131638 56 1055 1110 0.011074897399 0.011118897399 2 14 1064 1078 1132292
212	131694 56 1055 1110 0.011074897399 0.011118897399 2 14 1064 1078 1132292
213	131750 56 1055 1110 0.011074897399 0.011118897399 2 14 1064 1078 1132292
214	131806 56 1056 1111 0.011074897399 0.011118897399 2 14 1064 1078 1132292
215	131862 56 1056 1111 0.011074897399 0.011118897399 2 14 1064 1078 1132292
216	131918 56 1056 1111 0.011074897399 0.011118897399 2 14 1064 1078 1132292
217	131974 56 1056 1111 0.011074897399 0.011118897399 2 14 1064 1078 1132292
218	132030 56 1056 1111 0.011074897399 0.011118897399 2 14 1064 1078 1132292
219	132086 56 1057 1112 0.011074897399 0.011118897399 2 14 1064 1078 1132292
220	132142 56 1057 1112 0.011074897399 0.011118897399 2 14 1064 1078 1132292
221	132198 56 1057 1112 0.011074897399 0.011118897399 2 14 1064 1078 1132292
222	132254 56 1057 1112 0.011074897399 0.011118897399 2 14 1064 1078 1132292
223	132310 56 1057 1112 0.011074897399 0.011118897399 2 14 1064 1078 1132292
224	132366 56 1058 1113 0.011074897399 0.011118897399 2 14 1064 1078 1132292
225	132422 56 1058 1113 0.011074897399 0.011118897399 2 14 1064 1078 1132292
226	132478 56 1058 1113 0.011074897399 0.011118897399 2 14 1064 1078 1132292
227	132534 56 1058 1113 0.011074897399 0.011118897399 2 14 1064 1078 1132292
228	132590 56 1058 1113 0.011074897399 0.011118897399 2 14 1064 1078 1132292
239	132646 29 1047 1047 0.011074790607 0.011074790607 1 1064 1064 1064 1132096
240	132675 29 1047 1047 0.011074790607 0.011074790607 1 1064 1064 1064 1132096
241	132704 29 1047 1047 0.011074790607 0.011074790607 1 1064 1064 1064 1132096
242	132733 29 1047 1047 0.011074790607 0.011074790607 1 1064 1064 1064 1132096
262	132762 26 1086 1086 0.011116654637 0.011116654637 1 0 0 0 0
263	132788 27 1119 1119 0.011121140161 0.011121140161 1 14 14 14 196
264	132815 27 1119 1119 0.011121140161 0.011121140161 1 14 14 14 196
265	132842 27 1119 1119 0.011121140161 0.011121140161 1 14 14 14 196
266	132869 27 1119 1119 0.011121140161 0.011121140161 1 14 14 14 196
267	132896 29 1054 1054 0.011074897399 0.011074897399 1 1064 1064 1064 1132096
268	132925 29 1054 1054 0.011074897399 0.011074897399 1 1064 1064 1064 1132096
269	132954 29 1054 1054 0.011074897399 0.011074897399 1 1064 1064 1064 1132096
270	132983 33 1054 1054 0.011074897399 0.011074897399 1 24000000 24000000 24000000 5.76e+14
271	133016 29 1054 1054 0.011074897399 0.011074897399 1 1036 1036 1036 1073296
272	133045 84 1055 1100 0.011074897399 0.011118897399 3 0 4.4e-05 4.4e-05 1.936e-09
273	133129 84 1056 1101 0.011074897399 0.011118897399 3 0 4.4e-05 4.4e-05 1.936e-09
274	133213 84 1057 1102 0.011074897399 0.011118897399 3 0 4.4e-05 4.4e-05 1.936e-09
275	133297 84 1058 1103 0.011074897399 0.011118897399 3 0 4.4e-05 4.4e-05 1.936e-09
276	133381 29 1061 1061 0.011074897399 0.011074897399 1 1008 1008 1008 1016064
277	133410 26 1061 1061 0.011074897399 0.011074897399 1 4 4 4 16
278	133436 29 1062 1062 0.011074897399 0.011074897399 1 1000 1000 1000 1000000
279	133465 39 1062 1062 0.011074897399 0.011074897399 1 0.001262321134 0.001262321134 0.001262321134 1.593454645343e-06
280	133504 26 1062 1062 0.011074897399 0.011074897399 1 2 2 2 4
281	133530 27 1063 1063 0.011084897399 0.011084897399 1 14 14 14 196
282	133557 104 1064 1109 0.011084897399 0.011118897399 4 0 2 4 6
283	133661 27 1104 1104 0.011118897399 0.011118897399 1 14 14 14 196
284	133688 27 1104 1104 0.011118897399 0.011118897399 1 14 14 14 196
285	133715 27 1104 1104 0.011118897399 0.011118897399 1 14 14 14 196
311	133742 26 1120 1120 0.011121140161 0.011121140161 1 0 0 0 0
314	133768 26 1120 1120 0.011121140161 0.011121140161 1 0 0 0 0
319	133794 27 1120 1120 0.011121140161 0.011121140161 1 14 14 14 196
320	133821 27 1120 1120 0.011121140161 0.011121140161 1 14 14 14 196
321	133848 27 1120 1120 0.011121140161 0.011121140161 1 14 14 14 196
322	133875 39 1120 1120 0.011121140161 0.011121140161 1 0.000430485524 0.000430485524 0.000430485524 1.8531778637355e-07
vector 323 MultiRadioShowcase.host_Beginning.app[0] throughput:vector ETV
attr source throughput(packetReceived)
attr title "throughput, vector"
attr unit bps
vector 324 MultiRadioShowcase.host_Middle.app[0] throughput:vector ETV
attr source throughput(packetReceived)
attr title "throughput, vector"
attr unit bps
vector 325 MultiRadioShowcase.host_End.app[0] throughput:vector ETV
attr source throughput(packetReceived)
attr title "throughput, vector"
attr unit bps
vector 326 MultiRadioShowcase.host_DifferentApp.app[0] throughput:vector ETV
attr source throughput(packetReceived)
attr title "throughput, vector"
attr unit bps
323	134544 26 1141 1141 0.014256433291 0.014256433291 1 0 0 0 0
324	134570 26 1141 1141 0.014256433291 0.014256433291 1 0 0 0 0
325	134596 40 1141 1141 0.014256433291 0.014256433291 1 2244600.6898655 2244600.6898655 2244600.6898655 5038232256944.7
326	134636 26 1141 1141 0.014256433291 0.014256433291 1 0 0 0 0

