version 2
run General-0-20220529-04:28:28-4563
attr configname General
attr datetime 20220529-04:28:28
attr experiment General
attr inifile omnetpp.ini
attr iterationvars ""
attr iterationvarsf ""
attr measurement ""
attr network MultiRadioShowcase
attr processid 4563
attr repetition 0
attr replication #0
attr resultdir results
attr runnumber 0
attr seedset 0
param *.configurator.config "xml(\"<config><interface hosts='**' address='10.0.0.x' netmask='255.255.255.0'/><autoroute metric='errorRate'/></config>\")"
param *.configurator.optimizeRoutes false
param *.host*.ipv4.routingTable.netmaskRoutes "\"\""
param *.host*.numWlanInterfaces 5
param *.host*.numApps 1
param *.host*.wlan[*].radio.displayCommunicationRange true
param *.host*.app[*].localPort 100
param *.host*.app[*].destPort 100
param *.host*.app[*].messageLength 1000B
param *.host*.app[*].startTime exponential(100us)
param *.host*.app[*].sendInterval exponential(12ms)
param *.host_Beginning.app[0].typename "\"UdpBasicApp\""
param *.host_Beginning.app[0].destAddresses "\"host_End\""
param *.host_End.app[0].typename "\"UdpSink\""
param *.host_DifferentApp.app[0].typename "\"UdpBasicApp\""
param *.host_DifferentApp.app[0].destAddresses "\"host_End\""
param *.host_Middle.app[*].typename "\"UdpBasicApp\""
param *.host*.typename "\"AodvRouter\""
param **.numMediumVisualizers 4
param **.displaySignals true
param *.visualizer.interfaceTableVisualizer[0].displayInterfaceTables true
param *.visualizer.interfaceTableVisualizer[0].placementHint "\"top\""
param *.visualizer.ieee80211Visualizer[0].displayAssociations true
param *.visualizer.physicalLinkVisualizer[*].displayLinks true
param *.visualizer.dataLinkVisualizer[*].displayLinks true
param *.visualizer.networkRouteVisualizer[*].displayRoutes true
param *.visualizer.*LinkVisualizer[*].lineShift 0
param *.visualizer.networkRouteVisualizer[*].lineShift 0
param *.visualizer.networkRouteVisualizer[*].packetFilter "\"UDPData*\""
param **.arp.typename "\"GlobalArp\""

vector 0 MultiRadioShowcase.host_Beginning.wlan[0].radio radioMode:vector ETV
attr interpolationmode sample-hold
attr source radioModeChanged
attr title "Radio mode, vector"
vector 1 MultiRadioShowcase.host_Beginning.wlan[0].radio radioChannel:vector ETV
attr interpolationmode sample-hold
attr source radioChannelChanged
attr title "Radio channel, vector"
vector 2 MultiRadioShowcase.host_Beginning.wlan[1].radio radioMode:vector ETV
attr interpolationmode sample-hold
attr source radioModeChanged
attr title "Radio mode, vector"
vector 3 MultiRadioShowcase.host_Beginning.wlan[1].radio radioChannel:vector ETV
attr interpolationmode sample-hold
attr source radioChannelChanged
attr title "Radio channel, vector"
vector 4 MultiRadioShowcase.host_Beginning.wlan[2].radio radioMode:vector ETV
attr interpolationmode sample-hold
attr source radioModeChanged
attr title "Radio mode, vector"
vector 5 MultiRadioShowcase.host_Beginning.wlan[2].radio radioChannel:vector ETV
attr interpolationmode sample-hold
attr source radioChannelChanged
attr title "Radio channel, vector"
vector 6 MultiRadioShowcase.host_Beginning.wlan[3].radio radioMode:vector ETV
attr interpolationmode sample-hold
attr source radioModeChanged
attr title "Radio mode, vector"
vector 7 MultiRadioShowcase.host_Beginning.wlan[3].radio radioChannel:vector ETV
attr interpolationmode sample-hold
attr source radioChannelChanged
attr title "Radio channel, vector"
vector 8 MultiRadioShowcase.host_Beginning.wlan[4].radio radioMode:vector ETV
attr interpolationmode sample-hold
attr source radioModeChanged
attr title "Radio mode, vector"
vector 9 MultiRadioShowcase.host_Beginning.wlan[4].radio radioChannel:vector ETV
attr interpolationmode sample-hold
attr source radioChannelChanged
attr title "Radio channel, vector"
vector 10 MultiRadioShowcase.host_Middle.wlan[0].radio radioMode:vector ETV
attr interpolationmode sample-hold
attr source radioModeChanged
attr title "Radio mode, vector"
vector 11 MultiRadioShowcase.host_Middle.wlan[0].radio radioChannel:vector ETV
attr interpolationmode sample-hold
attr source radioChannelChanged
attr title "Radio channel, vector"
vector 12 MultiRadioShowcase.host_Middle.wlan[1].radio radioMode:vector ETV
attr interpolationmode sample-hold
attr source radioModeChanged
attr title "Radio mode, vector"
vector 13 MultiRadioShowcase.host_Middle.wlan[1].radio radioChannel:vector ETV
attr interpolationmode sample-hold
attr source radioChannelChanged
attr title "Radio channel, vector"
vector 14 MultiRadioShowcase.host_Middle.wlan[2].radio radioMode:vector ETV
attr interpolationmode sample-hold
attr source radioModeChanged
attr title "Radio mode, vector"
vector 15 MultiRadioShowcase.host_Middle.wlan[2].radio radioChannel:vector ETV
attr interpolationmode sample-hold
attr source radioChannelChanged
attr title "Radio channel, vector"
vector 16 MultiRadioShowcase.host_Middle.wlan[3].radio radioMode:vector ETV
attr interpolationmode sample-hold
attr source radioModeChanged
attr title "Radio mode, vector"
vector 17 MultiRadioShowcase.host_Middle.wlan[3].radio radioChannel:vector ETV
attr interpolationmode sample-hold
attr source radioChannelChanged
attr title "Radio channel, vector"
vector 18 MultiRadioShowcase.host_Middle.wlan[4].radio radioMode:vector ETV
attr interpolationmode sample-hold
attr source radioModeChanged
attr title "Radio mode, vector"
vector 19 MultiRadioShowcase.host_Middle.wlan[4].radio radioChannel:vector ETV
attr interpolationmode sample-hold
attr source radioChannelChanged
attr title "Radio channel, vector"
vector 20 MultiRadioShowcase.host_End.wlan[0].radio radioMode:vector ETV
attr interpolationmode sample-hold
attr source radioModeChanged
attr title "Radio mode, vector"
vector 21 MultiRadioShowcase.host_End.wlan[0].radio radioChannel:vector ETV
attr interpolationmode sample-hold
attr source radioChannelChanged
attr title "Radio channel, vector"
vector 22 MultiRadioShowcase.host_End.wlan[1].radio radioMode:vector ETV
attr interpolationmode sample-hold
attr source radioModeChanged
attr title "Radio mode, vector"
vector 23 MultiRadioShowcase.host_End.wlan[1].radio radioChannel:vector ETV
attr interpolationmode sample-hold
attr source radioChannelChanged
attr title "Radio channel, vector"
vector 24 MultiRadioShowcase.host_End.wlan[2].radio radioMode:vector ETV
attr interpolationmode sample-hold
attr source radioModeChanged
attr title "Radio mode, vector"
vector 25 MultiRadioShowcase.host_End.wlan[2].radio radioChannel:vector ETV
attr interpolationmode sample-hold
attr source radioChannelChanged
attr title "Radio channel, vector"
vector 26 MultiRadioShowcase.host_End.wlan[3].radio radioMode:vector ETV
attr interpolationmode sample-hold
attr source radioModeChanged
attr title "Radio mode, vector"
vector 27 MultiRadioShowcase.host_End.wlan[3].radio radioChannel:vector ETV
attr interpolationmode sample-hold
attr source radioChannelChanged
attr title "Radio channel, vector"
vector 28 MultiRadioShowcase.host_End.wlan[4].radio radioMode:vector ETV
attr interpolationmode sample-hold
attr source radioModeChanged
attr title "Radio mode, vector"
vector 29 MultiRadioShowcase.host_End.wlan[4].radio radioChannel:vector ETV
attr interpolationmode sample-hold
attr source radioChannelChanged
attr title "Radio channel, vector"
vector 30 MultiRadioShowcase.host_DifferentApp.wlan[0].radio radioMode:vector ETV
attr interpolationmode sample-hold
attr source radioModeChanged
attr title "Radio mode, vector"
vector 31 MultiRadioShowcase.host_DifferentApp.wlan[0].radio radioChannel:vector ETV
attr interpolationmode sample-hold
attr source radioChannelChanged
attr title "Radio channel, vector"
vector 32 MultiRadioShowcase.host_DifferentApp.wlan[1].radio radioMode:vector ETV
attr interpolationmode sample-hold
attr source radioModeChanged
attr title "Radio mode, vector"
vector 33 MultiRadioShowcase.host_DifferentApp.wlan[1].radio radioChannel:vector ETV
attr interpolationmode sample-hold
attr source radioChannelChanged
attr title "Radio channel, vector"
vector 34 MultiRadioShowcase.host_DifferentApp.wlan[2].radio radioMode:vector ETV
attr interpolationmode sample-hold
attr source radioModeChanged
attr title "Radio mode, vector"
vector 35 MultiRadioShowcase.host_DifferentApp.wlan[2].radio radioChannel:vector ETV
attr interpolationmode sample-hold
attr source radioChannelChanged
attr title "Radio channel, vector"
vector 36 MultiRadioShowcase.host_DifferentApp.wlan[3].radio radioMode:vector ETV
attr interpolationmode sample-hold
attr source radioModeChanged
attr title "Radio mode, vector"
vector 37 MultiRadioShowcase.host_DifferentApp.wlan[3].radio radioChannel:vector ETV
attr interpolationmode sample-hold
attr source radioChannelChanged
attr title "Radio channel, vector"
vector 38 MultiRadioShowcase.host_DifferentApp.wlan[4].radio radioMode:vector ETV
attr interpolationmode sample-hold
attr source radioModeChanged
attr title "Radio mode, vector"
vector 39 MultiRadioShowcase.host_DifferentApp.wlan[4].radio radioChannel:vector ETV
attr interpolationmode sample-hold
attr source radioChannelChanged
attr title "Radio channel, vector"
vector 40 MultiRadioShowcase.host_Beginning.wlan[0].radio receptionState:vector ETV
attr interpolationmode sample-hold
attr source receptionStateChanged
attr title "Radio reception state, vector"
vector 41 MultiRadioShowcase.host_Beginning.wlan[1].radio receptionState:vector ETV
attr interpolationmode sample-hold
attr source receptionStateChanged
attr title "Radio reception state, vector"
vector 42 MultiRadioShowcase.host_Beginning.wlan[2].radio receptionState:vector ETV
attr interpolationmode sample-hold
attr source receptionStateChanged
attr title "Radio reception state, vector"
vector 43 MultiRadioShowcase.host_Beginning.wlan[3].radio receptionState:vector ETV
attr interpolationmode sample-hold
attr source receptionStateChanged
attr title "Radio reception state, vector"
vector 44 MultiRadioShowcase.host_Beginning.wlan[4].radio receptionState:vector ETV
attr interpolationmode sample-hold
attr source receptionStateChanged
attr title "Radio reception state, vector"
vector 45 MultiRadioShowcase.host_Middle.wlan[0].radio receptionState:vector ETV
attr interpolationmode sample-hold
attr source receptionStateChanged
attr title "Radio reception state, vector"
vector 46 MultiRadioShowcase.host_Middle.wlan[1].radio receptionState:vector ETV
attr interpolationmode sample-hold
attr source receptionStateChanged
attr title "Radio reception state, vector"
vector 47 MultiRadioShowcase.host_Middle.wlan[2].radio receptionState:vector ETV
attr interpolationmode sample-hold
attr source receptionStateChanged
attr title "Radio reception state, vector"
vector 48 MultiRadioShowcase.host_Middle.wlan[3].radio receptionState:vector ETV
attr interpolationmode sample-hold
attr source receptionStateChanged
attr title "Radio reception state, vector"
vector 49 MultiRadioShowcase.host_Middle.wlan[4].radio receptionState:vector ETV
attr interpolationmode sample-hold
attr source receptionStateChanged
attr title "Radio reception state, vector"
vector 50 MultiRadioShowcase.host_End.wlan[0].radio receptionState:vector ETV
attr interpolationmode sample-hold
attr source receptionStateChanged
attr title "Radio reception state, vector"
vector 51 MultiRadioShowcase.host_End.wlan[1].radio receptionState:vector ETV
attr interpolationmode sample-hold
attr source receptionStateChanged
attr title "Radio reception state, vector"
vector 52 MultiRadioShowcase.host_End.wlan[2].radio receptionState:vector ETV
attr interpolationmode sample-hold
attr source receptionStateChanged
attr title "Radio reception state, vector"
vector 53 MultiRadioShowcase.host_End.wlan[3].radio receptionState:vector ETV
attr interpolationmode sample-hold
attr source receptionStateChanged
attr title "Radio reception state, vector"
vector 54 MultiRadioShowcase.host_End.wlan[4].radio receptionState:vector ETV
attr interpolationmode sample-hold
attr source receptionStateChanged
attr title "Radio reception state, vector"
vector 55 MultiRadioShowcase.host_DifferentApp.wlan[0].radio receptionState:vector ETV
attr interpolationmode sample-hold
attr source receptionStateChanged
attr title "Radio reception state, vector"
vector 56 MultiRadioShowcase.host_DifferentApp.wlan[1].radio receptionState:vector ETV
attr interpolationmode sample-hold
attr source receptionStateChanged
attr title "Radio reception state, vector"
vector 57 MultiRadioShowcase.host_DifferentApp.wlan[2].radio receptionState:vector ETV
attr interpolationmode sample-hold
attr source receptionStateChanged
attr title "Radio reception state, vector"
vector 58 MultiRadioShowcase.host_DifferentApp.wlan[3].radio receptionState:vector ETV
attr interpolationmode sample-hold
attr source receptionStateChanged
attr title "Radio reception state, vector"
vector 59 MultiRadioShowcase.host_DifferentApp.wlan[4].radio receptionState:vector ETV
attr interpolationmode sample-hold
attr source receptionStateChanged
attr title "Radio reception state, vector"
vector 60 MultiRadioShowcase.host_Beginning.wlan[0].mac.dcf.recoveryProcedure contentionWindowChanged:vector ETV
attr interpolationmode sample-hold
attr title "contention window, vector"
vector 61 MultiRadioShowcase.host_Beginning.wlan[1].mac.dcf.recoveryProcedure contentionWindowChanged:vector ETV
attr interpolationmode sample-hold
attr title "contention window, vector"
vector 62 MultiRadioShowcase.host_Beginning.wlan[2].mac.dcf.recoveryProcedure contentionWindowChanged:vector ETV
attr interpolationmode sample-hold
attr title "contention window, vector"
vector 63 MultiRadioShowcase.host_Beginning.wlan[3].mac.dcf.recoveryProcedure contentionWindowChanged:vector ETV
attr interpolationmode sample-hold
attr title "contention window, vector"
vector 64 MultiRadioShowcase.host_Beginning.wlan[4].mac.dcf.recoveryProcedure contentionWindowChanged:vector ETV
attr interpolationmode sample-hold
attr title "contention window, vector"
vector 65 MultiRadioShowcase.host_Middle.wlan[0].mac.dcf.recoveryProcedure contentionWindowChanged:vector ETV
attr interpolationmode sample-hold
attr title "contention window, vector"
vector 66 MultiRadioShowcase.host_Middle.wlan[1].mac.dcf.recoveryProcedure contentionWindowChanged:vector ETV
attr interpolationmode sample-hold
attr title "contention window, vector"
vector 67 MultiRadioShowcase.host_Middle.wlan[2].mac.dcf.recoveryProcedure contentionWindowChanged:vector ETV
attr interpolationmode sample-hold
attr title "contention window, vector"
vector 68 MultiRadioShowcase.host_Middle.wlan[3].mac.dcf.recoveryProcedure contentionWindowChanged:vector ETV
attr interpolationmode sample-hold
attr title "contention window, vector"
vector 69 MultiRadioShowcase.host_Middle.wlan[4].mac.dcf.recoveryProcedure contentionWindowChanged:vector ETV
attr interpolationmode sample-hold
attr title "contention window, vector"
vector 70 MultiRadioShowcase.host_End.wlan[0].mac.dcf.recoveryProcedure contentionWindowChanged:vector ETV
attr interpolationmode sample-hold
attr title "contention window, vector"
vector 71 MultiRadioShowcase.host_End.wlan[1].mac.dcf.recoveryProcedure contentionWindowChanged:vector ETV
attr interpolationmode sample-hold
attr title "contention window, vector"
vector 72 MultiRadioShowcase.host_End.wlan[2].mac.dcf.recoveryProcedure contentionWindowChanged:vector ETV
attr interpolationmode sample-hold
attr title "contention window, vector"
vector 73 MultiRadioShowcase.host_End.wlan[3].mac.dcf.recoveryProcedure contentionWindowChanged:vector ETV
attr interpolationmode sample-hold
attr title "contention window, vector"
vector 74 MultiRadioShowcase.host_End.wlan[4].mac.dcf.recoveryProcedure contentionWindowChanged:vector ETV
attr interpolationmode sample-hold
attr title "contention window, vector"
vector 75 MultiRadioShowcase.host_DifferentApp.wlan[0].mac.dcf.recoveryProcedure contentionWindowChanged:vector ETV
attr interpolationmode sample-hold
attr title "contention window, vector"
vector 76 MultiRadioShowcase.host_DifferentApp.wlan[1].mac.dcf.recoveryProcedure contentionWindowChanged:vector ETV
attr interpolationmode sample-hold
attr title "contention window, vector"
vector 77 MultiRadioShowcase.host_DifferentApp.wlan[2].mac.dcf.recoveryProcedure contentionWindowChanged:vector ETV
attr interpolationmode sample-hold
attr title "contention window, vector"
vector 78 MultiRadioShowcase.host_DifferentApp.wlan[3].mac.dcf.recoveryProcedure contentionWindowChanged:vector ETV
attr interpolationmode sample-hold
attr title "contention window, vector"
vector 79 MultiRadioShowcase.host_DifferentApp.wlan[4].mac.dcf.recoveryProcedure contentionWindowChanged:vector ETV
attr interpolationmode sample-hold
attr title "contention window, vector"
vector 80 MultiRadioShowcase.host_DifferentApp.app[0] packetSent:vector(packetBytes) ETV
attr interpolationmode none
attr source packetSent
attr title "packets sent, vector(packetBytes)"
vector 81 MultiRadioShowcase.host_DifferentApp.udp packetSent:vector(packetBytes) ETV
attr interpolationmode none
attr source packetSent
attr title "packets sent, vector(packetBytes)"
vector 82 MultiRadioShowcase.host_DifferentApp.wlan[1].mac packetReceivedFromUpper:vector(packetBytes) ETV
attr interpolationmode none
attr title "packets received from upper layer, vector(packetBytes)"
vector 83 MultiRadioShowcase.host_DifferentApp.wlan[1].mac.dcf.channelAccess.pendingQueue packetPushed:vector(packetBytes) ETV
attr interpolationmode none
attr title "packet pushed, vector(packetBytes)"
vector 84 MultiRadioShowcase.host_DifferentApp.wlan[1].mac.dcf.channelAccess.pendingQueue queueLength:vector ETV
attr interpolationmode sample-hold
attr source "count(packetPushed) - count(packetPopped) - count(packetRemoved) - count(packetDropped)"
attr title "queue length, vector"
vector 85 MultiRadioShowcase.host_DifferentApp.wlan[1].mac.dcf.channelAccess.contention backoffPeriodGenerated:vector ETV
attr interpolationmode none
attr title "backoff periods, vector"
vector 86 MultiRadioShowcase.host_DifferentApp.wlan[1].mac.dcf.channelAccess.contention backoffActive:vector ETV
attr interpolationmode sample-hold
attr source count(backoffStarted)-count(backoffStopped)
attr title "backoff active, vector"
vector 87 MultiRadioShowcase.host_Beginning.app[0] packetSent:vector(packetBytes) ETV
attr interpolationmode none
attr source packetSent
attr title "packets sent, vector(packetBytes)"
vector 88 MultiRadioShowcase.host_Beginning.udp packetSent:vector(packetBytes) ETV
attr interpolationmode none
attr source packetSent
attr title "packets sent, vector(packetBytes)"
vector 89 MultiRadioShowcase.host_Beginning.wlan[3].mac packetReceivedFromUpper:vector(packetBytes) ETV
attr interpolationmode none
attr title "packets received from upper layer, vector(packetBytes)"
vector 90 MultiRadioShowcase.host_Beginning.wlan[3].mac.dcf.channelAccess.pendingQueue packetPushed:vector(packetBytes) ETV
attr interpolationmode none
attr title "packet pushed, vector(packetBytes)"
vector 91 MultiRadioShowcase.host_Beginning.wlan[3].mac.dcf.channelAccess.pendingQueue queueLength:vector ETV
attr interpolationmode sample-hold
attr source "count(packetPushed) - count(packetPopped) - count(packetRemoved) - count(packetDropped)"
attr title "queue length, vector"
vector 92 MultiRadioShowcase.host_Beginning.wlan[3].mac.dcf.channelAccess.contention backoffPeriodGenerated:vector ETV
attr interpolationmode none
attr title "backoff periods, vector"
vector 93 MultiRadioShowcase.host_Beginning.wlan[3].mac.dcf.channelAccess.contention backoffActive:vector ETV
attr interpolationmode sample-hold
attr source count(backoffStarted)-count(backoffStopped)
attr title "backoff active, vector"
vector 94 MultiRadioShowcase.host_Beginning.wlan[3].mac.dcf.channelAccess.pendingQueue packetPopped:vector(packetBytes) ETV
attr interpolationmode none
attr title "packet popped, vector(packetBytes)"
vector 95 MultiRadioShowcase.host_Beginning.wlan[3].mac.dcf.channelAccess.pendingQueue queueingTime:vector ETV
attr interpolationmode none
attr source queueingTime(packetPopped)
attr title "queueing times, vector"
attr unit s
vector 96 MultiRadioShowcase.host_Beginning.wlan[3].mac.dcf.channelAccess.inProgressFrames queueLength:vector ETV
attr interpolationmode sample-hold
attr source "count(packetEnqueued) - count(packetDequeued)"
attr title "queue length, vector"
vector 97 MultiRadioShowcase.host_Beginning.wlan[3].mac.dcf datarateSelected:vector ETV
attr interpolationmode none
attr title "datarates selected, vector"
vector 98 MultiRadioShowcase.host_Beginning.wlan[3].mac packetSentToLower:vector(packetBytes) ETV
attr interpolationmode none
attr title "packets sent to lower layer, vector(packetBytes)"
vector 99 MultiRadioShowcase.host_Beginning.wlan[3].mac.dcf frameSequenceActive:vector ETV
attr interpolationmode sample-hold
attr source count(frameSequenceStarted)-count(frameSequenceFinished)
attr title "frame sequence active, vector"
vector 100 MultiRadioShowcase.host_Beginning.wlan[3].radio transmissionState:vector ETV
attr interpolationmode sample-hold
attr source transmissionStateChanged
attr title "Radio transmission state, vector"
vector 101 MultiRadioShowcase.host_Beginning.wlan[3].mac.dcf packetSentToPeer:vector(packetBytes) ETV
attr interpolationmode none
attr title "packets sent, vector(packetBytes)"
vector 102 MultiRadioShowcase.host_Beginning.wlan[3].mac.dcf packetSentToPeerUnicast:vector(packetBytes) ETV
attr interpolationmode none
attr source ieee80211Unicast(packetSentToPeer)
attr title "packets sent: unicast, vector(packetBytes)"
vector 103 MultiRadioShowcase.host_Beginning.wlan[3].mac.dcf packetSentToPeerWithoutRetry:vector(packetBytes) ETV
attr interpolationmode none
attr source ieee80211NotRetry(packetSentToPeer)
attr title "packets sent: without retry, vector(packetBytes)"
vector 104 MultiRadioShowcase.host_Beginning.wlan[3].mac.rx nav:vector ETV
attr interpolationmode linear
attr source navChanged
attr title "network allocation vector, vector"
vector 105 MultiRadioShowcase.host_Beginning.wlan[0].mac packetReceivedFromLower:vector(packetBytes) ETV
attr interpolationmode none
attr title "packets received from lower layer, vector(packetBytes)"
vector 106 MultiRadioShowcase.host_Beginning.wlan[0].mac.rx nav:vector ETV
attr interpolationmode linear
attr source navChanged
attr title "network allocation vector, vector"
vector 107 MultiRadioShowcase.host_Beginning.wlan[0].mac.dcf packetDrop:vector(packetBytes) ETV
attr interpolationmode none
attr source packetDropped
attr title "packet drops, vector(packetBytes)"
vector 108 MultiRadioShowcase.host_Beginning.wlan[0].mac.dcf packetDropNotAddressedToUs:vector(packetBytes) ETV
attr interpolationmode none
attr source packetDropReasonIsNotAddressedToUs(packetDropped)
attr title "packet drops: not addressed to us, vector(packetBytes)"
vector 109 MultiRadioShowcase.host_Beginning.wlan[0].mac packetDrop:vector(packetBytes) ETV
attr interpolationmode none
attr source packetDropped
attr title "packet drops, vector(packetBytes)"
vector 110 MultiRadioShowcase.host_Beginning.wlan[0].mac packetDropNotAddressedToUs:vector(packetBytes) ETV
attr interpolationmode none
attr source packetDropReasonIsNotAddressedToUs(packetDropped)
attr title "packet drops: not addressed to us, vector(packetBytes)"
vector 111 MultiRadioShowcase.host_Beginning.wlan[1].mac packetReceivedFromLower:vector(packetBytes) ETV
attr interpolationmode none
attr title "packets received from lower layer, vector(packetBytes)"
vector 112 MultiRadioShowcase.host_Beginning.wlan[1].mac.rx nav:vector ETV
attr interpolationmode linear
attr source navChanged
attr title "network allocation vector, vector"
vector 113 MultiRadioShowcase.host_Beginning.wlan[1].mac.dcf packetDrop:vector(packetBytes) ETV
attr interpolationmode none
attr source packetDropped
attr title "packet drops, vector(packetBytes)"
vector 114 MultiRadioShowcase.host_Beginning.wlan[1].mac.dcf packetDropNotAddressedToUs:vector(packetBytes) ETV
attr interpolationmode none
attr source packetDropReasonIsNotAddressedToUs(packetDropped)
attr title "packet drops: not addressed to us, vector(packetBytes)"
vector 115 MultiRadioShowcase.host_Beginning.wlan[1].mac packetDrop:vector(packetBytes) ETV
attr interpolationmode none
attr source packetDropped
attr title "packet drops, vector(packetBytes)"
vector 116 MultiRadioShowcase.host_Beginning.wlan[1].mac packetDropNotAddressedToUs:vector(packetBytes) ETV
attr interpolationmode none
attr source packetDropReasonIsNotAddressedToUs(packetDropped)
attr title "packet drops: not addressed to us, vector(packetBytes)"
vector 117 MultiRadioShowcase.host_Beginning.wlan[2].mac packetReceivedFromLower:vector(packetBytes) ETV
attr interpolationmode none
attr title "packets received from lower layer, vector(packetBytes)"
vector 118 MultiRadioShowcase.host_Beginning.wlan[2].mac.rx nav:vector ETV
attr interpolationmode linear
attr source navChanged
attr title "network allocation vector, vector"
vector 119 MultiRadioShowcase.host_Beginning.wlan[2].mac.dcf packetDrop:vector(packetBytes) ETV
attr interpolationmode none
attr source packetDropped
attr title "packet drops, vector(packetBytes)"
vector 120 MultiRadioShowcase.host_Beginning.wlan[2].mac.dcf packetDropNotAddressedToUs:vector(packetBytes) ETV
attr interpolationmode none
attr source packetDropReasonIsNotAddressedToUs(packetDropped)
attr title "packet drops: not addressed to us, vector(packetBytes)"
vector 121 MultiRadioShowcase.host_Beginning.wlan[2].mac packetDrop:vector(packetBytes) ETV
attr interpolationmode none
attr source packetDropped
attr title "packet drops, vector(packetBytes)"
vector 122 MultiRadioShowcase.host_Beginning.wlan[2].mac packetDropNotAddressedToUs:vector(packetBytes) ETV
attr interpolationmode none
attr source packetDropReasonIsNotAddressedToUs(packetDropped)
attr title "packet drops: not addressed to us, vector(packetBytes)"
vector 123 MultiRadioShowcase.host_Beginning.wlan[4].mac packetReceivedFromLower:vector(packetBytes) ETV
attr interpolationmode none
attr title "packets received from lower layer, vector(packetBytes)"
vector 124 MultiRadioShowcase.host_Beginning.wlan[4].mac.rx nav:vector ETV
attr interpolationmode linear
attr source navChanged
attr title "network allocation vector, vector"
vector 125 MultiRadioShowcase.host_Beginning.wlan[4].mac.dcf packetDrop:vector(packetBytes) ETV
attr interpolationmode none
attr source packetDropped
attr title "packet drops, vector(packetBytes)"
vector 126 MultiRadioShowcase.host_Beginning.wlan[4].mac.dcf packetDropNotAddressedToUs:vector(packetBytes) ETV
attr interpolationmode none
attr source packetDropReasonIsNotAddressedToUs(packetDropped)
attr title "packet drops: not addressed to us, vector(packetBytes)"
vector 127 MultiRadioShowcase.host_Beginning.wlan[4].mac packetDrop:vector(packetBytes) ETV
attr interpolationmode none
attr source packetDropped
attr title "packet drops, vector(packetBytes)"
vector 128 MultiRadioShowcase.host_Beginning.wlan[4].mac packetDropNotAddressedToUs:vector(packetBytes) ETV
attr interpolationmode none
attr source packetDropReasonIsNotAddressedToUs(packetDropped)
attr title "packet drops: not addressed to us, vector(packetBytes)"
vector 129 MultiRadioShowcase.host_DifferentApp.wlan[0].mac packetReceivedFromLower:vector(packetBytes) ETV
attr interpolationmode none
attr title "packets received from lower layer, vector(packetBytes)"
vector 130 MultiRadioShowcase.host_DifferentApp.wlan[0].mac.rx nav:vector ETV
attr interpolationmode linear
attr source navChanged
attr title "network allocation vector, vector"
vector 131 MultiRadioShowcase.host_DifferentApp.wlan[0].mac.dcf packetDrop:vector(packetBytes) ETV
attr interpolationmode none
attr source packetDropped
attr title "packet drops, vector(packetBytes)"
vector 132 MultiRadioShowcase.host_DifferentApp.wlan[0].mac.dcf packetDropNotAddressedToUs:vector(packetBytes) ETV
attr interpolationmode none
attr source packetDropReasonIsNotAddressedToUs(packetDropped)
attr title "packet drops: not addressed to us, vector(packetBytes)"
vector 133 MultiRadioShowcase.host_DifferentApp.wlan[0].mac packetDrop:vector(packetBytes) ETV
attr interpolationmode none
attr source packetDropped
attr title "packet drops, vector(packetBytes)"
vector 134 MultiRadioShowcase.host_DifferentApp.wlan[0].mac packetDropNotAddressedToUs:vector(packetBytes) ETV
attr interpolationmode none
attr source packetDropReasonIsNotAddressedToUs(packetDropped)
attr title "packet drops: not addressed to us, vector(packetBytes)"
vector 135 MultiRadioShowcase.host_DifferentApp.wlan[1].mac packetReceivedFromLower:vector(packetBytes) ETV
attr interpolationmode none
attr title "packets received from lower layer, vector(packetBytes)"
vector 136 MultiRadioShowcase.host_DifferentApp.wlan[1].mac.rx nav:vector ETV
attr interpolationmode linear
attr source navChanged
attr title "network allocation vector, vector"
vector 137 MultiRadioShowcase.host_DifferentApp.wlan[1].mac.dcf packetDrop:vector(packetBytes) ETV
attr interpolationmode none
attr source packetDropped
attr title "packet drops, vector(packetBytes)"
vector 138 MultiRadioShowcase.host_DifferentApp.wlan[1].mac.dcf packetDropNotAddressedToUs:vector(packetBytes) ETV
attr interpolationmode none
attr source packetDropReasonIsNotAddressedToUs(packetDropped)
attr title "packet drops: not addressed to us, vector(packetBytes)"
vector 139 MultiRadioShowcase.host_DifferentApp.wlan[1].mac packetDrop:vector(packetBytes) ETV
attr interpolationmode none
attr source packetDropped
attr title "packet drops, vector(packetBytes)"
vector 140 MultiRadioShowcase.host_DifferentApp.wlan[1].mac packetDropNotAddressedToUs:vector(packetBytes) ETV
attr interpolationmode none
attr source packetDropReasonIsNotAddressedToUs(packetDropped)
attr title "packet drops: not addressed to us, vector(packetBytes)"
vector 141 MultiRadioShowcase.host_DifferentApp.wlan[2].mac packetReceivedFromLower:vector(packetBytes) ETV
attr interpolationmode none
attr title "packets received from lower layer, vector(packetBytes)"
vector 142 MultiRadioShowcase.host_DifferentApp.wlan[2].mac.rx nav:vector ETV
attr interpolationmode linear
attr source navChanged
attr title "network allocation vector, vector"
vector 143 MultiRadioShowcase.host_DifferentApp.wlan[2].mac.dcf packetDrop:vector(packetBytes) ETV
attr interpolationmode none
attr source packetDropped
attr title "packet drops, vector(packetBytes)"
vector 144 MultiRadioShowcase.host_DifferentApp.wlan[2].mac.dcf packetDropNotAddressedToUs:vector(packetBytes) ETV
attr interpolationmode none
attr source packetDropReasonIsNotAddressedToUs(packetDropped)
attr title "packet drops: not addressed to us, vector(packetBytes)"
vector 145 MultiRadioShowcase.host_DifferentApp.wlan[2].mac packetDrop:vector(packetBytes) ETV
attr interpolationmode none
attr source packetDropped
attr title "packet drops, vector(packetBytes)"
vector 146 MultiRadioShowcase.host_DifferentApp.wlan[2].mac packetDropNotAddressedToUs:vector(packetBytes) ETV
attr interpolationmode none
attr source packetDropReasonIsNotAddressedToUs(packetDropped)
attr title "packet drops: not addressed to us, vector(packetBytes)"
vector 147 MultiRadioShowcase.host_DifferentApp.wlan[3].mac packetReceivedFromLower:vector(packetBytes) ETV
attr interpolationmode none
attr title "packets received from lower layer, vector(packetBytes)"
vector 148 MultiRadioShowcase.host_DifferentApp.wlan[3].mac.rx nav:vector ETV
attr interpolationmode linear
attr source navChanged
attr title "network allocation vector, vector"
vector 149 MultiRadioShowcase.host_DifferentApp.wlan[3].mac.dcf packetDrop:vector(packetBytes) ETV
attr interpolationmode none
attr source packetDropped
attr title "packet drops, vector(packetBytes)"
vector 150 MultiRadioShowcase.host_DifferentApp.wlan[3].mac.dcf packetDropNotAddressedToUs:vector(packetBytes) ETV
attr interpolationmode none
attr source packetDropReasonIsNotAddressedToUs(packetDropped)
attr title "packet drops: not addressed to us, vector(packetBytes)"
vector 151 MultiRadioShowcase.host_DifferentApp.wlan[3].mac packetDrop:vector(packetBytes) ETV
attr interpolationmode none
attr source packetDropped
attr title "packet drops, vector(packetBytes)"
vector 152 MultiRadioShowcase.host_DifferentApp.wlan[3].mac packetDropNotAddressedToUs:vector(packetBytes) ETV
attr interpolationmode none
attr source packetDropReasonIsNotAddressedToUs(packetDropped)
attr title "packet drops: not addressed to us, vector(packetBytes)"
vector 153 MultiRadioShowcase.host_DifferentApp.wlan[4].mac packetReceivedFromLower:vector(packetBytes) ETV
attr interpolationmode none
attr title "packets received from lower layer, vector(packetBytes)"
vector 154 MultiRadioShowcase.host_DifferentApp.wlan[4].mac.rx nav:vector ETV
attr interpolationmode linear
attr source navChanged
attr title "network allocation vector, vector"
vector 155 MultiRadioShowcase.host_DifferentApp.wlan[4].mac.dcf packetDrop:vector(packetBytes) ETV
attr interpolationmode none
attr source packetDropped
attr title "packet drops, vector(packetBytes)"
vector 156 MultiRadioShowcase.host_DifferentApp.wlan[4].mac.dcf packetDropNotAddressedToUs:vector(packetBytes) ETV
attr interpolationmode none
attr source packetDropReasonIsNotAddressedToUs(packetDropped)
attr title "packet drops: not addressed to us, vector(packetBytes)"
vector 157 MultiRadioShowcase.host_DifferentApp.wlan[4].mac packetDrop:vector(packetBytes) ETV
attr interpolationmode none
attr source packetDropped
attr title "packet drops, vector(packetBytes)"
vector 158 MultiRadioShowcase.host_DifferentApp.wlan[4].mac packetDropNotAddressedToUs:vector(packetBytes) ETV
attr interpolationmode none
attr source packetDropReasonIsNotAddressedToUs(packetDropped)
attr title "packet drops: not addressed to us, vector(packetBytes)"
vector 159 MultiRadioShowcase.host_Middle.wlan[0].mac packetReceivedFromLower:vector(packetBytes) ETV
attr interpolationmode none
attr title "packets received from lower layer, vector(packetBytes)"
vector 160 MultiRadioShowcase.host_Middle.wlan[0].mac.dcf packetReceivedFromPeer:vector(packetBytes) ETV
attr interpolationmode none
attr title "packets received, vector(packetBytes)"
vector 161 MultiRadioShowcase.host_Middle.wlan[0].mac.dcf packetReceivedFromPeerUnicast:vector(packetBytes) ETV
attr interpolationmode none
attr source ieee80211Unicast(packetReceivedFromPeer)
attr title "packets received: unicast, vector(packetBytes)"
vector 162 MultiRadioShowcase.host_Middle.wlan[0].mac.dcf packetReceivedFromPeerWithoutRetry:vector(packetBytes) ETV
attr interpolationmode none
attr source ieee80211NotRetry(packetReceivedFromPeer)
attr title "packets received: without retry, vector(packetBytes)"
vector 163 MultiRadioShowcase.host_Middle.wlan[0].mac.dcf datarateSelected:vector ETV
attr interpolationmode none
attr title "datarates selected, vector"
vector 164 MultiRadioShowcase.host_Middle.wlan[0].mac packetSentToUpper:vector(packetBytes) ETV
attr interpolationmode none
attr title "packets sent to upper layer, vector(packetBytes)"
vector 165 MultiRadioShowcase.host_Middle.wlan[1].mac packetReceivedFromLower:vector(packetBytes) ETV
attr interpolationmode none
attr title "packets received from lower layer, vector(packetBytes)"
vector 166 MultiRadioShowcase.host_Middle.wlan[1].mac.rx nav:vector ETV
attr interpolationmode linear
attr source navChanged
attr title "network allocation vector, vector"
vector 167 MultiRadioShowcase.host_Middle.wlan[1].mac.dcf packetDrop:vector(packetBytes) ETV
attr interpolationmode none
attr source packetDropped
attr title "packet drops, vector(packetBytes)"
vector 168 MultiRadioShowcase.host_Middle.wlan[1].mac.dcf packetDropNotAddressedToUs:vector(packetBytes) ETV
attr interpolationmode none
attr source packetDropReasonIsNotAddressedToUs(packetDropped)
attr title "packet drops: not addressed to us, vector(packetBytes)"
vector 169 MultiRadioShowcase.host_Middle.wlan[1].mac packetDrop:vector(packetBytes) ETV
attr interpolationmode none
attr source packetDropped
attr title "packet drops, vector(packetBytes)"
vector 170 MultiRadioShowcase.host_Middle.wlan[1].mac packetDropNotAddressedToUs:vector(packetBytes) ETV
attr interpolationmode none
attr source packetDropReasonIsNotAddressedToUs(packetDropped)
attr title "packet drops: not addressed to us, vector(packetBytes)"
vector 171 MultiRadioShowcase.host_Middle.wlan[2].mac packetReceivedFromLower:vector(packetBytes) ETV
attr interpolationmode none
attr title "packets received from lower layer, vector(packetBytes)"
vector 172 MultiRadioShowcase.host_Middle.wlan[2].mac.rx nav:vector ETV
attr interpolationmode linear
attr source navChanged
attr title "network allocation vector, vector"
vector 173 MultiRadioShowcase.host_Middle.wlan[2].mac.dcf packetDrop:vector(packetBytes) ETV
attr interpolationmode none
attr source packetDropped
attr title "packet drops, vector(packetBytes)"
vector 174 MultiRadioShowcase.host_Middle.wlan[2].mac.dcf packetDropNotAddressedToUs:vector(packetBytes) ETV
attr interpolationmode none
attr source packetDropReasonIsNotAddressedToUs(packetDropped)
attr title "packet drops: not addressed to us, vector(packetBytes)"
vector 175 MultiRadioShowcase.host_Middle.wlan[2].mac packetDrop:vector(packetBytes) ETV
attr interpolationmode none
attr source packetDropped
attr title "packet drops, vector(packetBytes)"
vector 176 MultiRadioShowcase.host_Middle.wlan[2].mac packetDropNotAddressedToUs:vector(packetBytes) ETV
attr interpolationmode none
attr source packetDropReasonIsNotAddressedToUs(packetDropped)
attr title "packet drops: not addressed to us, vector(packetBytes)"
vector 177 MultiRadioShowcase.host_Middle.wlan[3].mac packetReceivedFromLower:vector(packetBytes) ETV
attr interpolationmode none
attr title "packets received from lower layer, vector(packetBytes)"
vector 178 MultiRadioShowcase.host_Middle.wlan[3].mac.rx nav:vector ETV
attr interpolationmode linear
attr source navChanged
attr title "network allocation vector, vector"
vector 179 MultiRadioShowcase.host_Middle.wlan[3].mac.dcf packetDrop:vector(packetBytes) ETV
attr interpolationmode none
attr source packetDropped
attr title "packet drops, vector(packetBytes)"
vector 180 MultiRadioShowcase.host_Middle.wlan[3].mac.dcf packetDropNotAddressedToUs:vector(packetBytes) ETV
attr interpolationmode none
attr source packetDropReasonIsNotAddressedToUs(packetDropped)
attr title "packet drops: not addressed to us, vector(packetBytes)"
vector 181 MultiRadioShowcase.host_Middle.wlan[3].mac packetDrop:vector(packetBytes) ETV
attr interpolationmode none
attr source packetDropped
attr title "packet drops, vector(packetBytes)"
vector 182 MultiRadioShowcase.host_Middle.wlan[3].mac packetDropNotAddressedToUs:vector(packetBytes) ETV
attr interpolationmode none
attr source packetDropReasonIsNotAddressedToUs(packetDropped)
attr title "packet drops: not addressed to us, vector(packetBytes)"
vector 183 MultiRadioShowcase.host_Middle.wlan[4].mac packetReceivedFromLower:vector(packetBytes) ETV
attr interpolationmode none
attr title "packets received from lower layer, vector(packetBytes)"
vector 184 MultiRadioShowcase.host_Middle.wlan[4].mac.rx nav:vector ETV
attr interpolationmode linear
attr source navChanged
attr title "network allocation vector, vector"
vector 185 MultiRadioShowcase.host_Middle.wlan[4].mac.dcf packetDrop:vector(packetBytes) ETV
attr interpolationmode none
attr source packetDropped
attr title "packet drops, vector(packetBytes)"
vector 186 MultiRadioShowcase.host_Middle.wlan[4].mac.dcf packetDropNotAddressedToUs:vector(packetBytes) ETV
attr interpolationmode none
attr source packetDropReasonIsNotAddressedToUs(packetDropped)
attr title "packet drops: not addressed to us, vector(packetBytes)"
vector 187 MultiRadioShowcase.host_Middle.wlan[4].mac packetDrop:vector(packetBytes) ETV
attr interpolationmode none
attr source packetDropped
attr title "packet drops, vector(packetBytes)"
vector 188 MultiRadioShowcase.host_Middle.wlan[4].mac packetDropNotAddressedToUs:vector(packetBytes) ETV
attr interpolationmode none
attr source packetDropReasonIsNotAddressedToUs(packetDropped)
attr title "packet drops: not addressed to us, vector(packetBytes)"
vector 189 MultiRadioShowcase.host_Middle.wlan[3].mac packetReceivedFromUpper:vector(packetBytes) ETV
attr interpolationmode none
attr title "packets received from upper layer, vector(packetBytes)"
vector 190 MultiRadioShowcase.host_Middle.wlan[3].mac.dcf.channelAccess.pendingQueue packetPushed:vector(packetBytes) ETV
attr interpolationmode none
attr title "packet pushed, vector(packetBytes)"
vector 191 MultiRadioShowcase.host_Middle.wlan[3].mac.dcf.channelAccess.pendingQueue queueLength:vector ETV
attr interpolationmode sample-hold
attr source "count(packetPushed) - count(packetPopped) - count(packetRemoved) - count(packetDropped)"
attr title "queue length, vector"
vector 192 MultiRadioShowcase.host_Middle.wlan[3].mac.dcf.channelAccess.contention backoffPeriodGenerated:vector ETV
attr interpolationmode none
attr title "backoff periods, vector"
vector 193 MultiRadioShowcase.host_Middle.wlan[0].mac packetSentToLower:vector(packetBytes) ETV
attr interpolationmode none
attr title "packets sent to lower layer, vector(packetBytes)"
vector 194 MultiRadioShowcase.host_Middle.wlan[0].radio transmissionState:vector ETV
attr interpolationmode sample-hold
attr source transmissionStateChanged
attr title "Radio transmission state, vector"
vector 195 MultiRadioShowcase.host_Middle.wlan[0].mac.dcf packetSentToPeer:vector(packetBytes) ETV
attr interpolationmode none
attr title "packets sent, vector(packetBytes)"
vector 196 MultiRadioShowcase.host_Middle.wlan[0].mac.dcf packetSentToPeerUnicast:vector(packetBytes) ETV
attr interpolationmode none
attr source ieee80211Unicast(packetSentToPeer)
attr title "packets sent: unicast, vector(packetBytes)"
vector 197 MultiRadioShowcase.host_Middle.wlan[0].mac.dcf packetSentToPeerWithoutRetry:vector(packetBytes) ETV
attr interpolationmode none
attr source ieee80211NotRetry(packetSentToPeer)
attr title "packets sent: without retry, vector(packetBytes)"
vector 198 MultiRadioShowcase.host_Middle.wlan[3].mac.dcf.channelAccess.contention backoffActive:vector ETV
attr interpolationmode sample-hold
attr source count(backoffStarted)-count(backoffStopped)
attr title "backoff active, vector"
vector 199 MultiRadioShowcase.host_Beginning.wlan[3].mac packetReceivedFromLower:vector(packetBytes) ETV
attr interpolationmode none
attr title "packets received from lower layer, vector(packetBytes)"
vector 200 MultiRadioShowcase.host_Beginning.wlan[3].mac.dcf packetReceivedFromPeer:vector(packetBytes) ETV
attr interpolationmode none
attr title "packets received, vector(packetBytes)"
vector 201 MultiRadioShowcase.host_Beginning.wlan[3].mac.dcf packetReceivedFromPeerUnicast:vector(packetBytes) ETV
attr interpolationmode none
attr source ieee80211Unicast(packetReceivedFromPeer)
attr title "packets received: unicast, vector(packetBytes)"
vector 202 MultiRadioShowcase.host_Beginning.wlan[3].mac.dcf packetReceivedFromPeerWithoutRetry:vector(packetBytes) ETV
attr interpolationmode none
attr source ieee80211NotRetry(packetReceivedFromPeer)
attr title "packets received: without retry, vector(packetBytes)"
vector 203 MultiRadioShowcase.host_Beginning.wlan[3].mac.dcf.channelAccess.inProgressFrames queueingTime:vector ETV
attr interpolationmode none
attr source queueingTime(packetDequeued)
attr title "queueing times, vector"
vector 204 MultiRadioShowcase.host_End.wlan[0].mac packetReceivedFromLower:vector(packetBytes) ETV
attr interpolationmode none
attr title "packets received from lower layer, vector(packetBytes)"
vector 205 MultiRadioShowcase.host_End.wlan[0].mac.dcf packetDrop:vector(packetBytes) ETV
attr interpolationmode none
attr source packetDropped
attr title "packet drops, vector(packetBytes)"
vector 206 MultiRadioShowcase.host_End.wlan[0].mac.dcf packetDropNotAddressedToUs:vector(packetBytes) ETV
attr interpolationmode none
attr source packetDropReasonIsNotAddressedToUs(packetDropped)
attr title "packet drops: not addressed to us, vector(packetBytes)"
vector 207 MultiRadioShowcase.host_End.wlan[0].mac packetDrop:vector(packetBytes) ETV
attr interpolationmode none
attr source packetDropped
attr title "packet drops, vector(packetBytes)"
vector 208 MultiRadioShowcase.host_End.wlan[0].mac packetDropNotAddressedToUs:vector(packetBytes) ETV
attr interpolationmode none
attr source packetDropReasonIsNotAddressedToUs(packetDropped)
attr title "packet drops: not addressed to us, vector(packetBytes)"
vector 209 MultiRadioShowcase.host_End.wlan[1].mac packetReceivedFromLower:vector(packetBytes) ETV
attr interpolationmode none
attr title "packets received from lower layer, vector(packetBytes)"
vector 210 MultiRadioShowcase.host_End.wlan[1].mac.dcf packetDrop:vector(packetBytes) ETV
attr interpolationmode none
attr source packetDropped
attr title "packet drops, vector(packetBytes)"
vector 211 MultiRadioShowcase.host_End.wlan[1].mac.dcf packetDropNotAddressedToUs:vector(packetBytes) ETV
attr interpolationmode none
attr source packetDropReasonIsNotAddressedToUs(packetDropped)
attr title "packet drops: not addressed to us, vector(packetBytes)"
vector 212 MultiRadioShowcase.host_End.wlan[1].mac packetDrop:vector(packetBytes) ETV
attr interpolationmode none
attr source packetDropped
attr title "packet drops, vector(packetBytes)"
vector 213 MultiRadioShowcase.host_End.wlan[1].mac packetDropNotAddressedToUs:vector(packetBytes) ETV
attr interpolationmode none
attr source packetDropReasonIsNotAddressedToUs(packetDropped)
attr title "packet drops: not addressed to us, vector(packetBytes)"
vector 214 MultiRadioShowcase.host_End.wlan[2].mac packetReceivedFromLower:vector(packetBytes) ETV
attr interpolationmode none
attr title "packets received from lower layer, vector(packetBytes)"
vector 215 MultiRadioShowcase.host_End.wlan[2].mac.dcf packetDrop:vector(packetBytes) ETV
attr interpolationmode none
attr source packetDropped
attr title "packet drops, vector(packetBytes)"
vector 216 MultiRadioShowcase.host_End.wlan[2].mac.dcf packetDropNotAddressedToUs:vector(packetBytes) ETV
attr interpolationmode none
attr source packetDropReasonIsNotAddressedToUs(packetDropped)
attr title "packet drops: not addressed to us, vector(packetBytes)"
vector 217 MultiRadioShowcase.host_End.wlan[2].mac packetDrop:vector(packetBytes) ETV
attr interpolationmode none
attr source packetDropped
attr title "packet drops, vector(packetBytes)"
vector 218 MultiRadioShowcase.host_End.wlan[2].mac packetDropNotAddressedToUs:vector(packetBytes) ETV
attr interpolationmode none
attr source packetDropReasonIsNotAddressedToUs(packetDropped)
attr title "packet drops: not addressed to us, vector(packetBytes)"
vector 219 MultiRadioShowcase.host_End.wlan[3].mac packetReceivedFromLower:vector(packetBytes) ETV
attr interpolationmode none
attr title "packets received from lower layer, vector(packetBytes)"
vector 220 MultiRadioShowcase.host_End.wlan[3].mac.dcf packetDrop:vector(packetBytes) ETV
attr interpolationmode none
attr source packetDropped
attr title "packet drops, vector(packetBytes)"
vector 221 MultiRadioShowcase.host_End.wlan[3].mac.dcf packetDropNotAddressedToUs:vector(packetBytes) ETV
attr interpolationmode none
attr source packetDropReasonIsNotAddressedToUs(packetDropped)
attr title "packet drops: not addressed to us, vector(packetBytes)"
vector 222 MultiRadioShowcase.host_End.wlan[3].mac packetDrop:vector(packetBytes) ETV
attr interpolationmode none
attr source packetDropped
attr title "packet drops, vector(packetBytes)"
vector 223 MultiRadioShowcase.host_End.wlan[3].mac packetDropNotAddressedToUs:vector(packetBytes) ETV
attr interpolationmode none
attr source packetDropReasonIsNotAddressedToUs(packetDropped)
attr title "packet drops: not addressed to us, vector(packetBytes)"
vector 224 MultiRadioShowcase.host_End.wlan[4].mac packetReceivedFromLower:vector(packetBytes) ETV
attr interpolationmode none
attr title "packets received from lower layer, vector(packetBytes)"
vector 225 MultiRadioShowcase.host_End.wlan[4].mac.dcf packetDrop:vector(packetBytes) ETV
attr interpolationmode none
attr source packetDropped
attr title "packet drops, vector(packetBytes)"
vector 226 MultiRadioShowcase.host_End.wlan[4].mac.dcf packetDropNotAddressedToUs:vector(packetBytes) ETV
attr interpolationmode none
attr source packetDropReasonIsNotAddressedToUs(packetDropped)
attr title "packet drops: not addressed to us, vector(packetBytes)"
vector 227 MultiRadioShowcase.host_End.wlan[4].mac packetDrop:vector(packetBytes) ETV
attr interpolationmode none
attr source packetDropped
attr title "packet drops, vector(packetBytes)"
vector 228 MultiRadioShowcase.host_End.wlan[4].mac packetDropNotAddressedToUs:vector(packetBytes) ETV
attr interpolationmode none
attr source packetDropReasonIsNotAddressedToUs(packetDropped)
attr title "packet drops: not addressed to us, vector(packetBytes)"
vector 229 MultiRadioShowcase.host_DifferentApp.wlan[1].mac.dcf.channelAccess.pendingQueue packetPopped:vector(packetBytes) ETV
attr interpolationmode none
attr title "packet popped, vector(packetBytes)"
vector 230 MultiRadioShowcase.host_DifferentApp.wlan[1].mac.dcf.channelAccess.pendingQueue queueingTime:vector ETV
attr interpolationmode none
attr source queueingTime(packetPopped)
attr title "queueing times, vector"
attr unit s
vector 231 MultiRadioShowcase.host_DifferentApp.wlan[1].mac.dcf.channelAccess.inProgressFrames queueLength:vector ETV
attr interpolationmode sample-hold
attr source "count(packetEnqueued) - count(packetDequeued)"
attr title "queue length, vector"
vector 232 MultiRadioShowcase.host_DifferentApp.wlan[1].mac.dcf datarateSelected:vector ETV
attr interpolationmode none
attr title "datarates selected, vector"
vector 233 MultiRadioShowcase.host_DifferentApp.wlan[1].mac packetSentToLower:vector(packetBytes) ETV
attr interpolationmode none
attr title "packets sent to lower layer, vector(packetBytes)"
vector 234 MultiRadioShowcase.host_DifferentApp.wlan[1].mac.dcf frameSequenceActive:vector ETV
attr interpolationmode sample-hold
attr source count(frameSequenceStarted)-count(frameSequenceFinished)
attr title "frame sequence active, vector"
vector 235 MultiRadioShowcase.host_DifferentApp.wlan[1].radio transmissionState:vector ETV
attr interpolationmode sample-hold
attr source transmissionStateChanged
attr title "Radio transmission state, vector"
vector 236 MultiRadioShowcase.host_DifferentApp.wlan[1].mac.dcf packetSentToPeer:vector(packetBytes) ETV
attr interpolationmode none
attr title "packets sent, vector(packetBytes)"
vector 237 MultiRadioShowcase.host_DifferentApp.wlan[1].mac.dcf packetSentToPeerUnicast:vector(packetBytes) ETV
attr interpolationmode none
attr source ieee80211Unicast(packetSentToPeer)
attr title "packets sent: unicast, vector(packetBytes)"
vector 238 MultiRadioShowcase.host_DifferentApp.wlan[1].mac.dcf packetSentToPeerWithoutRetry:vector(packetBytes) ETV
attr interpolationmode none
attr source ieee80211NotRetry(packetSentToPeer)
attr title "packets sent: without retry, vector(packetBytes)"
vector 239 MultiRadioShowcase.host_Beginning.wlan[3].mac.dcf packetDrop:vector(packetBytes) ETV
attr interpolationmode none
attr source packetDropped
attr title "packet drops, vector(packetBytes)"
vector 240 MultiRadioShowcase.host_Beginning.wlan[3].mac.dcf packetDropNotAddressedToUs:vector(packetBytes) ETV
attr interpolationmode none
attr source packetDropReasonIsNotAddressedToUs(packetDropped)
attr title "packet drops: not addressed to us, vector(packetBytes)"
vector 241 MultiRadioShowcase.host_Beginning.wlan[3].mac packetDrop:vector(packetBytes) ETV
attr interpolationmode none
attr source packetDropped
attr title "packet drops, vector(packetBytes)"
vector 242 MultiRadioShowcase.host_Beginning.wlan[3].mac packetDropNotAddressedToUs:vector(packetBytes) ETV
attr interpolationmode none
attr source packetDropReasonIsNotAddressedToUs(packetDropped)
attr title "packet drops: not addressed to us, vector(packetBytes)"
vector 243 MultiRadioShowcase.host_Middle.wlan[4].mac packetReceivedFromUpper:vector(packetBytes) ETV
attr interpolationmode none
attr title "packets received from upper layer, vector(packetBytes)"
vector 244 MultiRadioShowcase.host_Middle.wlan[4].mac.dcf.channelAccess.pendingQueue packetPushed:vector(packetBytes) ETV
attr interpolationmode none
attr title "packet pushed, vector(packetBytes)"
vector 245 MultiRadioShowcase.host_Middle.wlan[4].mac.dcf.channelAccess.pendingQueue queueLength:vector ETV
attr interpolationmode sample-hold
attr source "count(packetPushed) - count(packetPopped) - count(packetRemoved) - count(packetDropped)"
attr title "queue length, vector"
vector 246 MultiRadioShowcase.host_Middle.wlan[4].mac.dcf.channelAccess.contention backoffPeriodGenerated:vector ETV
attr interpolationmode none
attr title "backoff periods, vector"
vector 247 MultiRadioShowcase.host_Middle.wlan[4].mac.dcf.channelAccess.contention backoffActive:vector ETV
attr interpolationmode sample-hold
attr source count(backoffStarted)-count(backoffStopped)
attr title "backoff active, vector"
vector 248 MultiRadioShowcase.host_DifferentApp.wlan[1].mac.dcf packetReceivedFromPeer:vector(packetBytes) ETV
attr interpolationmode none
attr title "packets received, vector(packetBytes)"
vector 249 MultiRadioShowcase.host_DifferentApp.wlan[1].mac.dcf packetReceivedFromPeerUnicast:vector(packetBytes) ETV
attr interpolationmode none
attr source ieee80211Unicast(packetReceivedFromPeer)
attr title "packets received: unicast, vector(packetBytes)"
vector 250 MultiRadioShowcase.host_DifferentApp.wlan[1].mac.dcf packetReceivedFromPeerWithoutRetry:vector(packetBytes) ETV
attr interpolationmode none
attr source ieee80211NotRetry(packetReceivedFromPeer)
attr title "packets received: without retry, vector(packetBytes)"
vector 251 MultiRadioShowcase.host_DifferentApp.wlan[1].mac.dcf.channelAccess.inProgressFrames queueingTime:vector ETV
attr interpolationmode none
attr source queueingTime(packetDequeued)
attr title "queueing times, vector"
vector 252 MultiRadioShowcase.host_Middle.wlan[3].mac.dcf.channelAccess.pendingQueue packetPopped:vector(packetBytes) ETV
attr interpolationmode none
attr title "packet popped, vector(packetBytes)"
vector 253 MultiRadioShowcase.host_Middle.wlan[3].mac.dcf.channelAccess.pendingQueue queueingTime:vector ETV
attr interpolationmode none
attr source queueingTime(packetPopped)
attr title "queueing times, vector"
attr unit s
vector 254 MultiRadioShowcase.host_Middle.wlan[3].mac.dcf.channelAccess.inProgressFrames queueLength:vector ETV
attr interpolationmode sample-hold
attr source "count(packetEnqueued) - count(packetDequeued)"
attr title "queue length, vector"
vector 255 MultiRadioShowcase.host_Middle.wlan[3].mac.dcf datarateSelected:vector ETV
attr interpolationmode none
attr title "datarates selected, vector"
vector 256 MultiRadioShowcase.host_Middle.wlan[3].mac packetSentToLower:vector(packetBytes) ETV
attr interpolationmode none
attr title "packets sent to lower layer, vector(packetBytes)"
vector 257 MultiRadioShowcase.host_Middle.wlan[3].mac.dcf frameSequenceActive:vector ETV
attr interpolationmode sample-hold
attr source count(frameSequenceStarted)-count(frameSequenceFinished)
attr title "frame sequence active, vector"
vector 258 MultiRadioShowcase.host_Middle.wlan[3].radio transmissionState:vector ETV
attr interpolationmode sample-hold
attr source transmissionStateChanged
attr title "Radio transmission state, vector"
vector 259 MultiRadioShowcase.host_Middle.wlan[3].mac.dcf packetSentToPeer:vector(packetBytes) ETV
attr interpolationmode none
attr title "packets sent, vector(packetBytes)"
vector 260 MultiRadioShowcase.host_Middle.wlan[3].mac.dcf packetSentToPeerUnicast:vector(packetBytes) ETV
attr interpolationmode none
attr source ieee80211Unicast(packetSentToPeer)
attr title "packets sent: unicast, vector(packetBytes)"
vector 261 MultiRadioShowcase.host_Middle.wlan[3].mac.dcf packetSentToPeerWithoutRetry:vector(packetBytes) ETV
attr interpolationmode none
attr source ieee80211NotRetry(packetSentToPeer)
attr title "packets sent: without retry, vector(packetBytes)"
vector 262 MultiRadioShowcase.host_Middle.wlan[0].mac.rx nav:vector ETV
attr interpolationmode linear
attr source navChanged
attr title "network allocation vector, vector"
vector 263 MultiRadioShowcase.host_Middle.wlan[0].mac.dcf packetDrop:vector(packetBytes) ETV
attr interpolationmode none
attr source packetDropped
attr title "packet drops, vector(packetBytes)"
vector 264 MultiRadioShowcase.host_Middle.wlan[0].mac.dcf packetDropNotAddressedToUs:vector(packetBytes) ETV
attr interpolationmode none
attr source packetDropReasonIsNotAddressedToUs(packetDropped)
attr title "packet drops: not addressed to us, vector(packetBytes)"
vector 265 MultiRadioShowcase.host_Middle.wlan[0].mac packetDrop:vector(packetBytes) ETV
attr interpolationmode none
attr source packetDropped
attr title "packet drops, vector(packetBytes)"
vector 266 MultiRadioShowcase.host_Middle.wlan[0].mac packetDropNotAddressedToUs:vector(packetBytes) ETV
attr interpolationmode none
attr source packetDropReasonIsNotAddressedToUs(packetDropped)
attr title "packet drops: not addressed to us, vector(packetBytes)"
vector 267 MultiRadioShowcase.host_End.wlan[0].mac.dcf packetReceivedFromPeer:vector(packetBytes) ETV
attr interpolationmode none
attr title "packets received, vector(packetBytes)"
vector 268 MultiRadioShowcase.host_End.wlan[0].mac.dcf packetReceivedFromPeerUnicast:vector(packetBytes) ETV
attr interpolationmode none
attr source ieee80211Unicast(packetReceivedFromPeer)
attr title "packets received: unicast, vector(packetBytes)"
vector 269 MultiRadioShowcase.host_End.wlan[0].mac.dcf packetReceivedFromPeerWithoutRetry:vector(packetBytes) ETV
attr interpolationmode none
attr source ieee80211NotRetry(packetReceivedFromPeer)
attr title "packets received: without retry, vector(packetBytes)"
vector 270 MultiRadioShowcase.host_End.wlan[0].mac.dcf datarateSelected:vector ETV
attr interpolationmode none
attr title "datarates selected, vector"
vector 271 MultiRadioShowcase.host_End.wlan[0].mac packetSentToUpper:vector(packetBytes) ETV
attr interpolationmode none
attr title "packets sent to upper layer, vector(packetBytes)"
vector 272 MultiRadioShowcase.host_End.wlan[1].mac.rx nav:vector ETV
attr interpolationmode linear
attr source navChanged
attr title "network allocation vector, vector"
vector 273 MultiRadioShowcase.host_End.wlan[2].mac.rx nav:vector ETV
attr interpolationmode linear
attr source navChanged
attr title "network allocation vector, vector"
vector 274 MultiRadioShowcase.host_End.wlan[3].mac.rx nav:vector ETV
attr interpolationmode linear
attr source navChanged
attr title "network allocation vector, vector"
vector 275 MultiRadioShowcase.host_End.wlan[4].mac.rx nav:vector ETV
attr interpolationmode linear
attr source navChanged
attr title "network allocation vector, vector"
vector 276 MultiRadioShowcase.host_End.udp packetReceived:vector(packetBytes) ETV
attr interpolationmode none
attr source packetReceived
attr title "packets received, vector(packetBytes)"
vector 277 MultiRadioShowcase.host_End.udp passedUpPk:vector(count) ETV
attr interpolationmode none
attr source packetSentToUpper
attr title "packets passed up, vector(count)"
vector 278 MultiRadioShowcase.host_End.app[0] packetReceived:vector(packetBytes) ETV
attr interpolationmode none
attr source packetReceived
attr title "packets received, vector(packetBytes)"
vector 279 MultiRadioShowcase.host_End.app[0] endToEndDelay:vector ETV
attr interpolationmode none
attr source dataAge(packetReceived)
attr title "end-to-end delay, vector"
attr unit s
vector 280 MultiRadioShowcase.host_End.app[0] rcvdPkSeqNo:vector ETV
attr interpolationmode none
attr source appPkSeqNo(packetReceived)
attr title "received packet sequence number, vector"
vector 281 MultiRadioShowcase.host_End.wlan[0].mac packetSentToLower:vector(packetBytes) ETV
attr interpolationmode none
attr title "packets sent to lower layer, vector(packetBytes)"
vector 282 MultiRadioShowcase.host_End.wlan[0].radio transmissionState:vector ETV
attr interpolationmode sample-hold
attr source transmissionStateChanged
attr title "Radio transmission state, vector"
vector 283 MultiRadioShowcase.host_End.wlan[0].mac.dcf packetSentToPeer:vector(packetBytes) ETV
attr interpolationmode none
attr title "packets sent, vector(packetBytes)"
vector 284 MultiRadioShowcase.host_End.wlan[0].mac.dcf packetSentToPeerUnicast:vector(packetBytes) ETV
attr interpolationmode none
attr source ieee80211Unicast(packetSentToPeer)
attr title "packets sent: unicast, vector(packetBytes)"
vector 285 MultiRadioShowcase.host_End.wlan[0].mac.dcf packetSentToPeerWithoutRetry:vector(packetBytes) ETV
attr interpolationmode none
attr source ieee80211NotRetry(packetSentToPeer)
attr title "packets sent: without retry, vector(packetBytes)"
vector 286 MultiRadioShowcase.host_Middle.wlan[3].mac.dcf packetReceivedFromPeer:vector(packetBytes) ETV
attr interpolationmode none
attr title "packets received, vector(packetBytes)"
vector 287 MultiRadioShowcase.host_Middle.wlan[3].mac.dcf packetReceivedFromPeerUnicast:vector(packetBytes) ETV
attr interpolationmode none
attr source ieee80211Unicast(packetReceivedFromPeer)
attr title "packets received: unicast, vector(packetBytes)"
vector 288 MultiRadioShowcase.host_Middle.wlan[3].mac.dcf packetReceivedFromPeerWithoutRetry:vector(packetBytes) ETV
attr interpolationmode none
attr source ieee80211NotRetry(packetReceivedFromPeer)
attr title "packets received: without retry, vector(packetBytes)"
vector 289 MultiRadioShowcase.host_Middle.wlan[3].mac.dcf.channelAccess.inProgressFrames queueingTime:vector ETV
attr interpolationmode none
attr source queueingTime(packetDequeued)
attr title "queueing times, vector"
vector 290 MultiRadioShowcase.host_Middle.wlan[4].mac.dcf.channelAccess.pendingQueue packetPopped:vector(packetBytes) ETV
attr interpolationmode none
attr title "packet popped, vector(packetBytes)"
vector 291 MultiRadioShowcase.host_Middle.wlan[4].mac.dcf.channelAccess.pendingQueue queueingTime:vector ETV
attr interpolationmode none
attr source queueingTime(packetPopped)
attr title "queueing times, vector"
attr unit s
vector 292 MultiRadioShowcase.host_Middle.wlan[4].mac.dcf.channelAccess.inProgressFrames queueLength:vector ETV
attr interpolationmode sample-hold
attr source "count(packetEnqueued) - count(packetDequeued)"
attr title "queue length, vector"
vector 293 MultiRadioShowcase.host_Middle.wlan[4].mac.dcf datarateSelected:vector ETV
attr interpolationmode none
attr title "datarates selected, vector"
vector 294 MultiRadioShowcase.host_Middle.wlan[4].mac packetSentToLower:vector(packetBytes) ETV
attr interpolationmode none
attr title "packets sent to lower layer, vector(packetBytes)"
vector 295 MultiRadioShowcase.host_Middle.wlan[4].mac.dcf frameSequenceActive:vector ETV
attr interpolationmode sample-hold
attr source count(frameSequenceStarted)-count(frameSequenceFinished)
attr title "frame sequence active, vector"
vector 296 MultiRadioShowcase.host_Middle.wlan[4].radio transmissionState:vector ETV
attr interpolationmode sample-hold
attr source transmissionStateChanged
attr title "Radio transmission state, vector"
vector 297 MultiRadioShowcase.host_Middle.wlan[4].mac.dcf packetSentToPeer:vector(packetBytes) ETV
attr interpolationmode none
attr title "packets sent, vector(packetBytes)"
vector 298 MultiRadioShowcase.host_Middle.wlan[4].mac.dcf packetSentToPeerUnicast:vector(packetBytes) ETV
attr interpolationmode none
attr source ieee80211Unicast(packetSentToPeer)
attr title "packets sent: unicast, vector(packetBytes)"
vector 299 MultiRadioShowcase.host_Middle.wlan[4].mac.dcf packetSentToPeerWithoutRetry:vector(packetBytes) ETV
attr interpolationmode none
attr source ieee80211NotRetry(packetSentToPeer)
attr title "packets sent: without retry, vector(packetBytes)"
vector 300 MultiRadioShowcase.host_Middle.wlan[4].mac.dcf packetReceivedFromPeer:vector(packetBytes) ETV
attr interpolationmode none
attr title "packets received, vector(packetBytes)"
vector 301 MultiRadioShowcase.host_Middle.wlan[4].mac.dcf packetReceivedFromPeerUnicast:vector(packetBytes) ETV
attr interpolationmode none
attr source ieee80211Unicast(packetReceivedFromPeer)
attr title "packets received: unicast, vector(packetBytes)"
vector 302 MultiRadioShowcase.host_Middle.wlan[4].mac.dcf packetReceivedFromPeerWithoutRetry:vector(packetBytes) ETV
attr interpolationmode none
attr source ieee80211NotRetry(packetReceivedFromPeer)
attr title "packets received: without retry, vector(packetBytes)"
vector 303 MultiRadioShowcase.host_Middle.wlan[4].mac.dcf.channelAccess.inProgressFrames queueingTime:vector ETV
attr interpolationmode none
attr source queueingTime(packetDequeued)
attr title "queueing times, vector"
vector 304 MultiRadioShowcase.host_Middle.wlan[1].mac packetReceivedFromUpper:vector(packetBytes) ETV
attr interpolationmode none
attr title "packets received from upper layer, vector(packetBytes)"
vector 305 MultiRadioShowcase.host_Middle.wlan[1].mac.dcf.channelAccess.pendingQueue packetPushed:vector(packetBytes) ETV
attr interpolationmode none
attr title "packet pushed, vector(packetBytes)"
vector 306 MultiRadioShowcase.host_Middle.wlan[1].mac.dcf.channelAccess.pendingQueue queueLength:vector ETV
attr interpolationmode sample-hold
attr source "count(packetPushed) - count(packetPopped) - count(packetRemoved) - count(packetDropped)"
attr title "queue length, vector"
vector 307 MultiRadioShowcase.host_Middle.wlan[1].mac.dcf.channelAccess.contention backoffPeriodGenerated:vector ETV
attr interpolationmode none
attr title "backoff periods, vector"
vector 308 MultiRadioShowcase.host_Middle.wlan[1].mac.dcf.channelAccess.contention backoffActive:vector ETV
attr interpolationmode sample-hold
attr source count(backoffStarted)-count(backoffStopped)
attr title "backoff active, vector"
vector 309 MultiRadioShowcase.host_Middle.wlan[1].mac.dcf.channelAccess.pendingQueue packetPopped:vector(packetBytes) ETV
attr interpolationmode none
attr title "packet popped, vector(packetBytes)"
vector 310 MultiRadioShowcase.host_Middle.wlan[1].mac.dcf.channelAccess.pendingQueue queueingTime:vector ETV
attr interpolationmode none
attr source queueingTime(packetPopped)
attr title "queueing times, vector"
attr unit s
vector 311 MultiRadioShowcase.host_Middle.wlan[1].mac.dcf.channelAccess.inProgressFrames queueLength:vector ETV
attr interpolationmode sample-hold
attr source "count(packetEnqueued) - count(packetDequeued)"
attr title "queue length, vector"
vector 312 MultiRadioShowcase.host_Middle.wlan[1].mac.dcf datarateSelected:vector ETV
attr interpolationmode none
attr title "datarates selected, vector"
vector 313 MultiRadioShowcase.host_Middle.wlan[1].mac packetSentToLower:vector(packetBytes) ETV
attr interpolationmode none
attr title "packets sent to lower layer, vector(packetBytes)"
vector 314 MultiRadioShowcase.host_Middle.wlan[1].mac.dcf frameSequenceActive:vector ETV
attr interpolationmode sample-hold
attr source count(frameSequenceStarted)-count(frameSequenceFinished)
attr title "frame sequence active, vector"
vector 315 MultiRadioShowcase.host_Middle.wlan[1].radio transmissionState:vector ETV
attr interpolationmode sample-hold
attr source transmissionStateChanged
attr title "Radio transmission state, vector"
vector 316 MultiRadioShowcase.host_Middle.wlan[1].mac.dcf packetSentToPeer:vector(packetBytes) ETV
attr interpolationmode none
attr title "packets sent, vector(packetBytes)"
vector 317 MultiRadioShowcase.host_Middle.wlan[1].mac.dcf packetSentToPeerUnicast:vector(packetBytes) ETV
attr interpolationmode none
attr source ieee80211Unicast(packetSentToPeer)
attr title "packets sent: unicast, vector(packetBytes)"
vector 318 MultiRadioShowcase.host_Middle.wlan[1].mac.dcf packetSentToPeerWithoutRetry:vector(packetBytes) ETV
attr interpolationmode none
attr source ieee80211NotRetry(packetSentToPeer)
attr title "packets sent: without retry, vector(packetBytes)"
vector 319 MultiRadioShowcase.host_Middle.wlan[1].mac.dcf packetReceivedFromPeer:vector(packetBytes) ETV
attr interpolationmode none
attr title "packets received, vector(packetBytes)"
vector 320 MultiRadioShowcase.host_Middle.wlan[1].mac.dcf packetReceivedFromPeerUnicast:vector(packetBytes) ETV
attr interpolationmode none
attr source ieee80211Unicast(packetReceivedFromPeer)
attr title "packets received: unicast, vector(packetBytes)"
vector 321 MultiRadioShowcase.host_Middle.wlan[1].mac.dcf packetReceivedFromPeerWithoutRetry:vector(packetBytes) ETV
attr interpolationmode none
attr source ieee80211NotRetry(packetReceivedFromPeer)
attr title "packets received: without retry, vector(packetBytes)"
vector 322 MultiRadioShowcase.host_Middle.wlan[1].mac.dcf.channelAccess.inProgressFrames queueingTime:vector ETV
attr interpolationmode none
attr source queueingTime(packetDequeued)
attr title "queueing times, vector"
0	0	0	0
0	0	0	0
0	0	0	2
1	0	0	0
2	0	0	0
2	0	0	0
2	0	0	2
3	0	0	0
4	0	0	0
4	0	0	0
4	0	0	2
5	0	0	0
6	0	0	0
6	0	0	0
6	0	0	2
6	20	0.00019	3
6	46	0.000572	2
7	0	0	0
8	0	0	0
8	0	0	0
8	0	0	2
9	0	0	0
10	0	0	0
10	0	0	0
10	0	0	2
10	81	0.00058413597	3
10	121	0.00061813597	2
10	219	0.001444292714	3
10	259	0.001478292714	2
10	638	0.004220190529	3
10	678	0.004254190529	2
10	919	0.010206654637	3
10	959	0.010240654637	2
11	0	0	0
12	0	0	0
12	0	0	0
12	0	0	2
12	715	0.004804190529	3
12	741	0.005186190529	2
12	998	0.010690654637	3
12	1024	0.011072654637	2
13	0	0	0
14	0	0	0
14	0	0	0
14	0	0	2
15	0	0	0
16	0	0	0
16	0	0	0
16	0	0	2
16	296	0.001608292714	3
16	322	0.001990292714	2
17	0	0	0
18	0	0	0
18	0	0	0
18	0	0	2
18	434	0.002288778238	3
18	460	0.002670778238	2
19	0	0	0
20	0	0	0
20	0	0	0
20	0	0	2
20	362	0.002002535476	3
20	407	0.002036535476	2
20	500	0.002683021	3
20	545	0.002717021	2
20	781	0.005198433291	3
20	826	0.005232433291	2
21	0	0	0
22	0	0	0
22	0	0	0
22	0	0	2
23	0	0	0
24	0	0	0
24	0	0	0
24	0	0	2
25	0	0	0
26	0	0	0
26	0	0	0
26	0	0	2
27	0	0	0
28	0	0	0
28	0	0	0
28	0	0	2
29	0	0	0
30	0	0	0
30	0	0	0
30	0	0	2
31	0	0	0
32	0	0	0
32	0	0	0
32	0	0	2
32	158	0.001050214342	3
32	184	0.001432214342	2
32	577	0.003826112157	3
32	603	0.004208112157	2
32	858	0.009812576265	3
32	884	0.010194576265	2
33	0	0	0
34	0	0	0
34	0	0	0
34	0	0	2
35	0	0	0
36	0	0	0
36	0	0	0
36	0	0	2
37	0	0	0
38	0	0	0
38	0	0	0
38	0	0	2
39	0	0	0
40	0	0	1
40	22	0.00019	3
40	42	0.000572	1
40	92	0.00058627194	3
40	136	0.00062027194	1
40	164	0.001050394467	3
40	189	0.001432394467	1
40	230	0.001446428684	3
40	274	0.001480428684	1
40	307	0.001610428684	3
40	337	0.001992428684	1
40	445	0.002290914208	3
40	475	0.002672914208	1
40	583	0.003826292282	3
40	608	0.004208292282	1
40	649	0.004222326499	3
40	693	0.004256326499	1
40	726	0.004806326499	3
40	756	0.005188326499	1
40	864	0.00981275639	3
40	889	0.01019475639	1
40	930	0.010208790607	3
40	974	0.010242790607	1
40	1009	0.010692790607	3
41	0	0	1
41	23	0.00019	3
41	43	0.000572	1
41	93	0.00058627194	3
41	137	0.00062027194	1
41	165	0.001050394467	3
41	190	0.001432394467	1
41	231	0.001446428684	3
41	275	0.001480428684	1
41	308	0.001610428684	3
41	338	0.001992428684	1
41	446	0.002290914208	3
41	476	0.002672914208	1
41	584	0.003826292282	3
41	609	0.004208292282	1
41	650	0.004222326499	3
41	694	0.004256326499	1
41	727	0.004806326499	3
41	757	0.005188326499	1
41	865	0.00981275639	3
41	890	0.01019475639	1
41	931	0.010208790607	3
41	975	0.010242790607	1
41	1010	0.010692790607	3
42	0	0	1
42	24	0.00019	3
42	44	0.000572	1
42	94	0.00058627194	3
42	138	0.00062027194	1
42	166	0.001050394467	3
42	191	0.001432394467	1
42	232	0.001446428684	3
42	276	0.001480428684	1
42	309	0.001610428684	3
42	339	0.001992428684	1
42	447	0.002290914208	3
42	477	0.002672914208	1
42	585	0.003826292282	3
42	610	0.004208292282	1
42	651	0.004222326499	3
42	695	0.004256326499	1
42	728	0.004806326499	3
42	758	0.005188326499	1
42	866	0.00981275639	3
42	891	0.01019475639	1
42	932	0.010208790607	3
42	976	0.010242790607	1
42	1011	0.010692790607	3
43	0	0	1
43	20	0.00019	0
43	46	0.000572	1
43	95	0.00058627194	3
43	139	0.00062027194	1
43	167	0.001050394467	3
43	192	0.001432394467	1
43	233	0.001446428684	3
43	277	0.001480428684	1
43	310	0.001610428684	3
43	340	0.001992428684	1
43	448	0.002290914208	3
43	478	0.002672914208	1
43	586	0.003826292282	3
43	611	0.004208292282	1
43	652	0.004222326499	3
43	696	0.004256326499	1
43	729	0.004806326499	3
43	759	0.005188326499	1
43	867	0.00981275639	3
43	892	0.01019475639	1
43	933	0.010208790607	3
43	977	0.010242790607	1
43	1012	0.010692790607	3
44	0	0	1
44	25	0.00019	3
44	45	0.000572	1
44	96	0.00058627194	3
44	140	0.00062027194	1
44	168	0.001050394467	3
44	193	0.001432394467	1
44	234	0.001446428684	3
44	278	0.001480428684	1
44	311	0.001610428684	3
44	341	0.001992428684	1
44	449	0.002290914208	3
44	479	0.002672914208	1
44	587	0.003826292282	3
44	612	0.004208292282	1
44	653	0.004222326499	3
44	697	0.004256326499	1
44	730	0.004806326499	3
44	760	0.005188326499	1
44	868	0.00981275639	3
44	893	0.01019475639	1
44	934	0.010208790607	3
44	978	0.010242790607	1
44	1013	0.010692790607	3
45	0	0	1
45	31	0.00019213597	3
45	61	0.00057413597	1
45	81	0.00058413597	0
45	121	0.00061813597	1
45	169	0.001052292714	3
45	199	0.001434292714	1
45	219	0.001444292714	0
45	259	0.001478292714	1
45	298	0.001608292714	3
45	318	0.001990292714	1
45	368	0.002004778238	3
45	412	0.002038778238	1
45	436	0.002288778238	3
45	456	0.002670778238	1
45	506	0.002685263762	3
45	550	0.002719263762	1
45	588	0.003828190529	3
45	618	0.004210190529	1
45	638	0.004220190529	0
45	678	0.004254190529	1
45	717	0.004804190529	3
45	737	0.005186190529	1
45	787	0.005200676053	3
45	831	0.005234676053	1
45	869	0.009814654637	3
45	899	0.010196654637	1
45	919	0.010206654637	0
45	959	0.010240654637	1
45	1000	0.010690654637	3
45	1020	0.011072654637	1
46	0	0	1
46	32	0.00019213597	3
46	62	0.00057413597	1
46	83	0.00058413597	3
46	117	0.00061813597	1
46	170	0.001052292714	3
46	200	0.001434292714	1
46	221	0.001444292714	3
46	255	0.001478292714	1
46	299	0.001608292714	3
46	319	0.001990292714	1
46	369	0.002004778238	3
46	413	0.002038778238	1
46	437	0.002288778238	3
46	457	0.002670778238	1
46	507	0.002685263762	3
46	551	0.002719263762	1
46	589	0.003828190529	3
46	619	0.004210190529	1
46	640	0.004220190529	3
46	674	0.004254190529	1
46	715	0.004804190529	0
46	741	0.005186190529	1
46	788	0.005200676053	3
46	832	0.005234676053	1
46	870	0.009814654637	3
46	900	0.010196654637	1
46	921	0.010206654637	3
46	955	0.010240654637	1
46	998	0.010690654637	0
46	1024	0.011072654637	1
47	0	0	1
47	33	0.00019213597	3
47	63	0.00057413597	1
47	84	0.00058413597	3
47	118	0.00061813597	1
47	171	0.001052292714	3
47	201	0.001434292714	1
47	222	0.001444292714	3
47	256	0.001478292714	1
47	300	0.001608292714	3
47	320	0.001990292714	1
47	370	0.002004778238	3
47	414	0.002038778238	1
47	438	0.002288778238	3
47	458	0.002670778238	1
47	508	0.002685263762	3
47	552	0.002719263762	1
47	590	0.003828190529	3
47	620	0.004210190529	1
47	641	0.004220190529	3
47	675	0.004254190529	1
47	718	0.004804190529	3
47	738	0.005186190529	1
47	789	0.005200676053	3
47	833	0.005234676053	1
47	871	0.009814654637	3
47	901	0.010196654637	1
47	922	0.010206654637	3
47	956	0.010240654637	1
47	1001	0.010690654637	3
47	1021	0.011072654637	1
48	0	0	1
48	34	0.00019213597	3
48	64	0.00057413597	1
48	85	0.00058413597	3
48	119	0.00061813597	1
48	172	0.001052292714	3
48	202	0.001434292714	1
48	223	0.001444292714	3
48	257	0.001478292714	1
48	296	0.001608292714	0
48	322	0.001990292714	1
48	371	0.002004778238	3
48	415	0.002038778238	1
48	439	0.002288778238	3
48	459	0.002670778238	1
48	509	0.002685263762	3
48	553	0.002719263762	1
48	591	0.003828190529	3
48	621	0.004210190529	1
48	642	0.004220190529	3
48	676	0.004254190529	1
48	719	0.004804190529	3
48	739	0.005186190529	1
48	790	0.005200676053	3
48	834	0.005234676053	1
48	872	0.009814654637	3
48	902	0.010196654637	1
48	923	0.010206654637	3
48	957	0.010240654637	1
48	1002	0.010690654637	3
48	1022	0.011072654637	1
49	0	0	1
49	35	0.00019213597	3
49	65	0.00057413597	1
49	86	0.00058413597	3
49	120	0.00061813597	1
49	173	0.001052292714	3
49	203	0.001434292714	1
49	224	0.001444292714	3
49	258	0.001478292714	1
49	301	0.001608292714	3
49	321	0.001990292714	1
49	372	0.002004778238	3
49	416	0.002038778238	1
49	434	0.002288778238	0
49	460	0.002670778238	1
49	510	0.002685263762	3
49	554	0.002719263762	1
49	592	0.003828190529	3
49	622	0.004210190529	1
49	643	0.004220190529	3
49	677	0.004254190529	1
49	720	0.004804190529	3
49	740	0.005186190529	1
49	791	0.005200676053	3
49	835	0.005234676053	1
49	873	0.009814654637	3
49	903	0.010196654637	1
49	924	0.010206654637	3
49	958	0.010240654637	1
49	1003	0.010690654637	3
49	1023	0.011072654637	1
50	0	0	1
50	97	0.000586378732	3
50	146	0.000620378732	1
50	235	0.001446535476	3
50	284	0.001480535476	1
50	312	0.001610535476	3
50	347	0.001992535476	1
50	362	0.002002535476	0
50	407	0.002036535476	1
50	450	0.002291021	3
50	485	0.002673021	1
50	500	0.002683021	0
50	545	0.002717021	1
50	654	0.004222433291	3
50	703	0.004256433291	1
50	731	0.004806433291	3
50	766	0.005188433291	1
50	781	0.005198433291	0
50	826	0.005232433291	1
50	935	0.010208897399	3
50	984	0.010242897399	1
50	1014	0.010692897399	3
51	0	0	1
51	98	0.000586378732	3
51	147	0.000620378732	1
51	236	0.001446535476	3
51	285	0.001480535476	1
51	313	0.001610535476	3
51	348	0.001992535476	1
51	364	0.002002535476	3
51	403	0.002036535476	1
51	451	0.002291021	3
51	486	0.002673021	1
51	502	0.002683021	3
51	541	0.002717021	1
51	655	0.004222433291	3
51	704	0.004256433291	1
51	732	0.004806433291	3
51	767	0.005188433291	1
51	783	0.005198433291	3
51	822	0.005232433291	1
51	936	0.010208897399	3
51	985	0.010242897399	1
51	1015	0.010692897399	3
52	0	0	1
52	99	0.000586378732	3
52	148	0.000620378732	1
52	237	0.001446535476	3
52	286	0.001480535476	1
52	314	0.001610535476	3
52	349	0.001992535476	1
52	365	0.002002535476	3
52	404	0.002036535476	1
52	452	0.002291021	3
52	487	0.002673021	1
52	503	0.002683021	3
52	542	0.002717021	1
52	656	0.004222433291	3
52	705	0.004256433291	1
52	733	0.004806433291	3
52	768	0.005188433291	1
52	784	0.005198433291	3
52	823	0.005232433291	1
52	937	0.010208897399	3
52	986	0.010242897399	1
52	1016	0.010692897399	3
53	0	0	1
53	100	0.000586378732	3
53	149	0.000620378732	1
53	238	0.001446535476	3
53	287	0.001480535476	1
53	315	0.001610535476	3
53	350	0.001992535476	1
53	366	0.002002535476	3
53	405	0.002036535476	1
53	453	0.002291021	3
53	488	0.002673021	1
53	504	0.002683021	3
53	543	0.002717021	1
53	657	0.004222433291	3
53	706	0.004256433291	1
53	734	0.004806433291	3
53	769	0.005188433291	1
53	785	0.005198433291	3
53	824	0.005232433291	1
53	938	0.010208897399	3
53	987	0.010242897399	1
53	1017	0.010692897399	3
54	0	0	1
54	101	0.000586378732	3
54	150	0.000620378732	1
54	239	0.001446535476	3
54	288	0.001480535476	1
54	316	0.001610535476	3
54	351	0.001992535476	1
54	367	0.002002535476	3
54	406	0.002036535476	1
54	454	0.002291021	3
54	489	0.002673021	1
54	505	0.002683021	3
54	544	0.002717021	1
54	658	0.004222433291	3
54	707	0.004256433291	1
54	735	0.004806433291	3
54	770	0.005188433291	1
54	786	0.005198433291	3
54	825	0.005232433291	1
54	939	0.010208897399	3
54	988	0.010242897399	1
54	1018	0.010692897399	3
55	0	0	1
55	26	0.000190180125	3
55	51	0.000572180125	1
55	87	0.000586214342	3
55	126	0.000620214342	1
55	160	0.001050214342	3
55	180	0.001432214342	1
55	225	0.001446371086	3
55	264	0.001480371086	1
55	302	0.001610371086	3
55	327	0.001992371086	1
55	440	0.00229085661	3
55	465	0.00267285661	1
55	579	0.003826112157	3
55	599	0.004208112157	1
55	644	0.004222268901	3
55	683	0.004256268901	1
55	721	0.004806268901	3
55	746	0.005188268901	1
55	860	0.009812576265	3
55	880	0.010194576265	1
55	925	0.010208733009	3
55	964	0.010242733009	1
55	1004	0.010692733009	3
56	0	0	1
56	27	0.000190180125	3
56	52	0.000572180125	1
56	88	0.000586214342	3
56	127	0.000620214342	1
56	158	0.001050214342	0
56	184	0.001432214342	1
56	226	0.001446371086	3
56	265	0.001480371086	1
56	303	0.001610371086	3
56	328	0.001992371086	1
56	441	0.00229085661	3
[...]
211	353	0.001992535476	1064
211	408	0.002036535476	14
211	491	0.002673021	1064
211	546	0.002717021	14
211	709	0.004256433291	14
211	772	0.005188433291	1064
211	827	0.005232433291	14
211	990	0.010242897399	14
212	152	0.000620378732	14
212	290	0.001480535476	14
212	353	0.001992535476	1064
212	408	0.002036535476	14
212	491	0.002673021	1064
212	546	0.002717021	14
212	709	0.004256433291	14
212	772	0.005188433291	1064
212	827	0.005232433291	14
212	990	0.010242897399	14
213	152	0.000620378732	14
213	290	0.001480535476	14
213	353	0.001992535476	1064
213	408	0.002036535476	14
213	491	0.002673021	1064
213	546	0.002717021	14
213	709	0.004256433291	14
213	772	0.005188433291	1064
213	827	0.005232433291	14
213	990	0.010242897399	14
214	153	0.000620378732	14
214	291	0.001480535476	14
214	354	0.001992535476	1064
214	409	0.002036535476	14
214	492	0.002673021	1064
214	547	0.002717021	14
214	710	0.004256433291	14
214	773	0.005188433291	1064
214	828	0.005232433291	14
214	991	0.010242897399	14
215	153	0.000620378732	14
215	291	0.001480535476	14
215	354	0.001992535476	1064
215	409	0.002036535476	14
215	492	0.002673021	1064
215	547	0.002717021	14
215	710	0.004256433291	14
215	773	0.005188433291	1064
215	828	0.005232433291	14
215	991	0.010242897399	14
216	153	0.000620378732	14
216	291	0.001480535476	14
216	354	0.001992535476	1064
216	409	0.002036535476	14
216	492	0.002673021	1064
216	547	0.002717021	14
216	710	0.004256433291	14
216	773	0.005188433291	1064
216	828	0.005232433291	14
216	991	0.010242897399	14
217	153	0.000620378732	14
217	291	0.001480535476	14
217	354	0.001992535476	1064
217	409	0.002036535476	14
217	492	0.002673021	1064
217	547	0.002717021	14
217	710	0.004256433291	14
217	773	0.005188433291	1064
217	828	0.005232433291	14
217	991	0.010242897399	14
218	153	0.000620378732	14
218	291	0.001480535476	14
218	354	0.001992535476	1064
218	409	0.002036535476	14
218	492	0.002673021	1064
218	547	0.002717021	14
218	710	0.004256433291	14
218	773	0.005188433291	1064
218	828	0.005232433291	14
218	991	0.010242897399	14
219	154	0.000620378732	14
219	292	0.001480535476	14
219	355	0.001992535476	1064
219	410	0.002036535476	14
219	493	0.002673021	1064
219	548	0.002717021	14
219	711	0.004256433291	14
219	774	0.005188433291	1064
219	829	0.005232433291	14
219	992	0.010242897399	14
220	154	0.000620378732	14
220	292	0.001480535476	14
220	355	0.001992535476	1064
220	410	0.002036535476	14
220	493	0.002673021	1064
220	548	0.002717021	14
220	711	0.004256433291	14
220	774	0.005188433291	1064
220	829	0.005232433291	14
220	992	0.010242897399	14
221	154	0.000620378732	14
221	292	0.001480535476	14
221	355	0.001992535476	1064
221	410	0.002036535476	14
221	493	0.002673021	1064
221	548	0.002717021	14
221	711	0.004256433291	14
221	774	0.005188433291	1064
221	829	0.005232433291	14
221	992	0.010242897399	14
222	154	0.000620378732	14
222	292	0.001480535476	14
222	355	0.001992535476	1064
222	410	0.002036535476	14
222	493	0.002673021	1064
222	548	0.002717021	14
222	711	0.004256433291	14
222	774	0.005188433291	1064
222	829	0.005232433291	14
222	992	0.010242897399	14
223	154	0.000620378732	14
223	292	0.001480535476	14
223	355	0.001992535476	1064
223	410	0.002036535476	14
223	493	0.002673021	1064
223	548	0.002717021	14
223	711	0.004256433291	14
223	774	0.005188433291	1064
223	829	0.005232433291	14
223	992	0.010242897399	14
224	155	0.000620378732	14
224	293	0.001480535476	14
224	356	0.001992535476	1064
224	411	0.002036535476	14
224	494	0.002673021	1064
224	549	0.002717021	14
224	712	0.004256433291	14
224	775	0.005188433291	1064
224	830	0.005232433291	14
224	993	0.010242897399	14
225	155	0.000620378732	14
225	293	0.001480535476	14
225	356	0.001992535476	1064
225	411	0.002036535476	14
225	494	0.002673021	1064
225	549	0.002717021	14
225	712	0.004256433291	14
225	775	0.005188433291	1064
225	830	0.005232433291	14
225	993	0.010242897399	14
226	155	0.000620378732	14
226	293	0.001480535476	14
226	356	0.001992535476	1064
226	411	0.002036535476	14
226	494	0.002673021	1064
226	549	0.002717021	14
226	712	0.004256433291	14
226	775	0.005188433291	1064
226	830	0.005232433291	14
226	993	0.010242897399	14
227	155	0.000620378732	14
227	293	0.001480535476	14
227	356	0.001992535476	1064
227	411	0.002036535476	14
227	494	0.002673021	1064
227	549	0.002717021	14
227	712	0.004256433291	14
227	775	0.005188433291	1064
227	830	0.005232433291	14
227	993	0.010242897399	14
228	155	0.000620378732	14
228	293	0.001480535476	14
228	356	0.001992535476	1064
228	411	0.002036535476	14
228	494	0.002673021	1064
228	549	0.002717021	14
228	712	0.004256433291	14
228	775	0.005188433291	1064
228	830	0.005232433291	14
228	993	0.010242897399	14
229	157	0.001050214342	1064
229	576	0.003826112157	1064
229	857	0.009812576265	1064
230	157	0.001050214342	0.001044375875
230	576	0.003826112157	0
230	857	0.009812576265	0
231	157	0.001050214342	1
231	270	0.001480371086	0
231	576	0.003826112157	1
231	689	0.004256268901	0
231	857	0.009812576265	1
231	970	0.010242733009	0
232	157	0.001050214342	24000000
232	576	0.003826112157	24000000
232	857	0.009812576265	24000000
233	157	0.001050214342	1064
233	576	0.003826112157	1064
233	857	0.009812576265	1064
234	157	0.001050214342	1
234	270	0.001480371086	0
234	576	0.003826112157	1
234	689	0.004256268901	0
234	857	0.009812576265	1
234	970	0.010242733009	0
235	158	0.001050214342	1
235	159	0.001050214342	2
235	179	0.001432214342	1
235	184	0.001432214342	0
235	577	0.003826112157	1
235	578	0.003826112157	2
235	598	0.004208112157	1
235	603	0.004208112157	0
235	858	0.009812576265	1
235	859	0.009812576265	2
235	879	0.010194576265	1
235	884	0.010194576265	0
236	179	0.001432214342	1064
236	598	0.004208112157	1064
236	879	0.010194576265	1064
237	179	0.001432214342	1064
237	598	0.004208112157	1064
237	879	0.010194576265	1064
238	179	0.001432214342	1064
238	598	0.004208112157	1064
238	879	0.010194576265	1064
239	197	0.001432394467	1064
239	282	0.001480428684	14
239	345	0.001992428684	1064
239	483	0.002672914208	1064
239	616	0.004208292282	1064
239	701	0.004256326499	14
239	764	0.005188326499	1064
239	897	0.01019475639	1064
239	982	0.010242790607	14
240	197	0.001432394467	1064
240	282	0.001480428684	14
240	345	0.001992428684	1064
240	483	0.002672914208	1064
240	616	0.004208292282	1064
240	701	0.004256326499	14
240	764	0.005188326499	1064
240	897	0.01019475639	1064
240	982	0.010242790607	14
241	197	0.001432394467	1064
241	282	0.001480428684	14
241	345	0.001992428684	1064
241	483	0.002672914208	1064
241	616	0.004208292282	1064
241	701	0.004256326499	14
241	764	0.005188326499	1064
241	897	0.01019475639	1064
241	982	0.010242790607	14
242	197	0.001432394467	1064
242	282	0.001480428684	14
242	345	0.001992428684	1064
242	483	0.002672914208	1064
242	616	0.004208292282	1064
242	701	0.004256326499	14
242	764	0.005188326499	1064
242	897	0.01019475639	1064
242	982	0.010242790607	14
243	212	0.001434292714	1036
244	212	0.001434292714	1064
245	212	0.001434292714	1
245	433	0.002288778238	0
246	212	0.001434292714	14
247	258	0.001478292714	1
247	301	0.001608292714	0
247	321	0.001990292714	1
247	326	0.001990292714	0
247	416	0.002038778238	1
247	432	0.002288778238	0
248	270	0.001480371086	14
248	689	0.004256268901	14
248	970	0.010242733009	14
249	270	0.001480371086	14
249	689	0.004256268901	14
249	970	0.010242733009	14
250	270	0.001480371086	14
250	689	0.004256268901	14
250	970	0.010242733009	14
251	270	0.001480371086	0.000430156744
251	689	0.004256268901	0.000430156744
251	970	0.010242733009	0.000430156744
252	295	0.001608292714	1064
253	295	0.001608292714	0.001034156744
254	295	0.001608292714	1
254	420	0.002038778238	0
255	295	0.001608292714	24000000
256	295	0.001608292714	1064
257	295	0.001608292714	1
257	420	0.002038778238	0
258	296	0.001608292714	1
258	297	0.001608292714	2
258	317	0.001990292714	1
258	322	0.001990292714	0
259	317	0.001990292714	1064
260	317	0.001990292714	1064
261	317	0.001990292714	1064
262	323	0.001990292714	0
262	323	0.001990292714	4.4e-05
262	384	0.002034292714	0
262	461	0.002670778238	0
262	461	0.002670778238	4.4e-05
262	522	0.002714778238	0
262	742	0.005186190529	0
262	742	0.005186190529	4.4e-05
262	803	0.005230190529	0
262	1025	0.011072654637	0
262	1025	0.011072654637	4.4e-05
263	323	0.001990292714	1064
263	417	0.002038778238	14
263	461	0.002670778238	1064
263	555	0.002719263762	14
263	742	0.005186190529	1064
263	836	0.005234676053	14
263	1025	0.011072654637	1064
264	323	0.001990292714	1064
264	417	0.002038778238	14
264	461	0.002670778238	1064
264	555	0.002719263762	14
264	742	0.005186190529	1064
264	836	0.005234676053	14
264	1025	0.011072654637	1064
265	323	0.001990292714	1064
265	417	0.002038778238	14
265	461	0.002670778238	1064
265	555	0.002719263762	14
265	742	0.005186190529	1064
265	836	0.005234676053	14
265	1025	0.011072654637	1064
266	323	0.001990292714	1064
266	417	0.002038778238	14
266	461	0.002670778238	1064
266	555	0.002719263762	14
266	742	0.005186190529	1064
266	836	0.005234676053	14
266	1025	0.011072654637	1064
267	352	0.001992535476	1064
267	490	0.002673021	1064
267	771	0.005188433291	1064
268	352	0.001992535476	1064
268	490	0.002673021	1064
268	771	0.005188433291	1064
269	352	0.001992535476	1064
269	490	0.002673021	1064
269	771	0.005188433291	1064
270	352	0.001992535476	24000000
270	490	0.002673021	24000000
270	771	0.005188433291	24000000
271	352	0.001992535476	1036
271	490	0.002673021	1036
271	771	0.005188433291	1036
272	353	0.001992535476	0
272	353	0.001992535476	4.4e-05
272	398	0.002036535476	0
272	491	0.002673021	0
272	491	0.002673021	4.4e-05
272	536	0.002717021	0
272	772	0.005188433291	0
272	772	0.005188433291	4.4e-05
272	817	0.005232433291	0
273	354	0.001992535476	0
273	354	0.001992535476	4.4e-05
273	399	0.002036535476	0
273	492	0.002673021	0
273	492	0.002673021	4.4e-05
273	537	0.002717021	0
273	773	0.005188433291	0
273	773	0.005188433291	4.4e-05
273	818	0.005232433291	0
274	355	0.001992535476	0
274	355	0.001992535476	4.4e-05
274	400	0.002036535476	0
274	493	0.002673021	0
274	493	0.002673021	4.4e-05
274	538	0.002717021	0
274	774	0.005188433291	0
274	774	0.005188433291	4.4e-05
274	819	0.005232433291	0
275	356	0.001992535476	0
275	356	0.001992535476	4.4e-05
275	401	0.002036535476	0
275	494	0.002673021	0
275	494	0.002673021	4.4e-05
275	539	0.002717021	0
275	775	0.005188433291	0
275	775	0.005188433291	4.4e-05
275	820	0.005232433291	0
276	359	0.001992535476	1008
276	497	0.002673021	1008
276	778	0.005188433291	1008
277	359	0.001992535476	1
277	497	0.002673021	2
277	778	0.005188433291	3
278	360	0.001992535476	1000
278	498	0.002673021	1000
278	779	0.005188433291	1000
279	360	0.001992535476	0.001806575055
279	498	0.002673021	0.002667182533
279	779	0.005188433291	0.001362321134
280	360	0.001992535476	0
280	498	0.002673021	0
280	779	0.005188433291	1
281	361	0.002002535476	14
281	499	0.002683021	14
281	780	0.005198433291	14
282	362	0.002002535476	1
282	363	0.002002535476	2
282	402	0.002036535476	1
282	407	0.002036535476	0
282	500	0.002683021	1
282	501	0.002683021	2
282	540	0.002717021	1
282	545	0.002717021	0
282	781	0.005198433291	1
282	782	0.005198433291	2
282	821	0.005232433291	1
282	826	0.005232433291	0
283	402	0.002036535476	14
283	540	0.002717021	14
283	821	0.005232433291	14
284	402	0.002036535476	14
284	540	0.002717021	14
284	821	0.005232433291	14
285	402	0.002036535476	14
285	540	0.002717021	14
285	821	0.005232433291	14
286	420	0.002038778238	14
287	420	0.002038778238	14
288	420	0.002038778238	14
289	420	0.002038778238	0.000430485524
290	433	0.002288778238	1064
291	433	0.002288778238	0.000854485524
292	433	0.002288778238	1
292	559	0.002719263762	0
293	433	0.002288778238	24000000
294	433	0.002288778238	1064
295	433	0.002288778238	1
295	559	0.002719263762	0
296	434	0.002288778238	1
296	435	0.002288778238	2
296	455	0.002670778238	1
296	460	0.002670778238	0
297	455	0.002670778238	1064
298	455	0.002670778238	1064
299	455	0.002670778238	1064
300	559	0.002719263762	14
301	559	0.002719263762	14
302	559	0.002719263762	14
303	559	0.002719263762	0.000430485524
304	631	0.004210190529	1036
304	912	0.010196654637	1036
305	631	0.004210190529	1064
305	912	0.010196654637	1064
306	631	0.004210190529	1
306	714	0.004804190529	0
306	912	0.010196654637	1
306	997	0.010690654637	0
307	631	0.004210190529	25
307	912	0.010196654637	20
308	674	0.004254190529	1
308	713	0.004804190529	0
308	955	0.010240654637	1
308	996	0.010690654637	0
309	714	0.004804190529	1064
309	997	0.010690654637	1064
310	714	0.004804190529	0.000594
310	997	0.010690654637	0.000494
311	714	0.004804190529	1
311	837	0.005234676053	0
311	997	0.010690654637	1
312	714	0.004804190529	24000000
312	997	0.010690654637	24000000
313	714	0.004804190529	1064
313	997	0.010690654637	1064
314	714	0.004804190529	1
314	837	0.005234676053	0
314	997	0.010690654637	1
315	715	0.004804190529	1
315	716	0.004804190529	2
315	736	0.005186190529	1
315	741	0.005186190529	0
315	998	0.010690654637	1
315	999	0.010690654637	2
315	1019	0.011072654637	1
315	1024	0.011072654637	0
316	736	0.005186190529	1064
316	1019	0.011072654637	1064
317	736	0.005186190529	1064
317	1019	0.011072654637	1064
318	736	0.005186190529	1064
318	1019	0.011072654637	1064
319	837	0.005234676053	14
320	837	0.005234676053	14
321	837	0.005234676053	14
322	837	0.005234676053	0.000430485524
20	1064	0.011084897399	3
20	1109	0.011118897399	2
40	1039	0.011074790607	1
41	1040	0.011074790607	1
42	1041	0.011074790607	1
43	1042	0.011074790607	1
44	1043	0.011074790607	1
45	1070	0.011087140161	3
45	1114	0.011121140161	1
46	1071	0.011087140161	3
46	1115	0.011121140161	1
47	1072	0.011087140161	3
47	1116	0.011121140161	1
48	1073	0.011087140161	3
48	1117	0.011121140161	1
49	1074	0.011087140161	3
49	1118	0.011121140161	1
50	1049	0.011074897399	1
50	1064	0.011084897399	0
50	1109	0.011118897399	1
51	1050	0.011074897399	1
51	1066	0.011084897399	3
51	1105	0.011118897399	1
52	1051	0.011074897399	1
52	1067	0.011084897399	3
52	1106	0.011118897399	1
53	1052	0.011074897399	1
53	1068	0.011084897399	3
53	1107	0.011118897399	1
54	1053	0.011074897399	1
54	1069	0.011084897399	3
54	1108	0.011118897399	1
55	1029	0.011074733009	1
56	1030	0.011074733009	1
57	1031	0.011074733009	1
58	1032	0.011074733009	1
59	1033	0.011074733009	1
104	1047	0.011074790607	0
104	1047	0.011074790607	4.4e-05
104	1098	0.011118790607	0
105	1044	0.011074790607	1064
106	1044	0.011074790607	0
106	1044	0.011074790607	4.4e-05
106	1095	0.011118790607	0
107	1044	0.011074790607	1064
108	1044	0.011074790607	1064
109	1044	0.011074790607	1064
110	1044	0.011074790607	1064
111	1045	0.011074790607	1064
112	1045	0.011074790607	0
112	1045	0.011074790607	4.4e-05
112	1096	0.011118790607	0
113	1045	0.011074790607	1064
114	1045	0.011074790607	1064
115	1045	0.011074790607	1064
116	1045	0.011074790607	1064
117	1046	0.011074790607	1064
118	1046	0.011074790607	0
118	1046	0.011074790607	4.4e-05
118	1097	0.011118790607	0
119	1046	0.011074790607	1064
120	1046	0.011074790607	1064
121	1046	0.011074790607	1064
122	1046	0.011074790607	1064
123	1048	0.011074790607	1064
124	1048	0.011074790607	0
124	1048	0.011074790607	4.4e-05
124	1099	0.011118790607	0
125	1048	0.011074790607	1064
126	1048	0.011074790607	1064
127	1048	0.011074790607	1064
128	1048	0.011074790607	1064
129	1034	0.011074733009	1064
130	1034	0.011074733009	0
130	1034	0.011074733009	4.4e-05
130	1090	0.011118733009	0
131	1034	0.011074733009	1064
132	1034	0.011074733009	1064
133	1034	0.011074733009	1064
134	1034	0.011074733009	1064
135	1035	0.011074733009	1064
136	1035	0.011074733009	0
136	1035	0.011074733009	4.4e-05
136	1091	0.011118733009	0
137	1035	0.011074733009	1064
138	1035	0.011074733009	1064
139	1035	0.011074733009	1064
140	1035	0.011074733009	1064
141	1036	0.011074733009	1064
142	1036	0.011074733009	0
142	1036	0.011074733009	4.4e-05
142	1092	0.011118733009	0
143	1036	0.011074733009	1064
144	1036	0.011074733009	1064
145	1036	0.011074733009	1064
146	1036	0.011074733009	1064
147	1037	0.011074733009	1064
148	1037	0.011074733009	0
148	1037	0.011074733009	4.4e-05
148	1093	0.011118733009	0
149	1037	0.011074733009	1064
150	1037	0.011074733009	1064
151	1037	0.011074733009	1064
152	1037	0.011074733009	1064
153	1038	0.011074733009	1064
154	1038	0.011074733009	0
154	1038	0.011074733009	4.4e-05
154	1094	0.011118733009	0
155	1038	0.011074733009	1064
156	1038	0.011074733009	1064
157	1038	0.011074733009	1064
158	1038	0.011074733009	1064
159	1119	0.011121140161	14
165	1120	0.011121140161	14
166	1085	0.011116654637	0
171	1121	0.011121140161	14
172	1087	0.011116654637	0
173	1121	0.011121140161	14
174	1121	0.011121140161	14
175	1121	0.011121140161	14
176	1121	0.011121140161	14
177	1122	0.011121140161	14
178	1088	0.011116654637	0
179	1122	0.011121140161	14
180	1122	0.011121140161	14
181	1122	0.011121140161	14
182	1122	0.011121140161	14
183	1123	0.011121140161	14
184	1089	0.011116654637	0
185	1123	0.011121140161	14
186	1123	0.011121140161	14
187	1123	0.011121140161	14
188	1123	0.011121140161	14
199	1047	0.011074790607	1064
204	1054	0.011074897399	1064
209	1055	0.011074897399	1064
209	1110	0.011118897399	14
210	1055	0.011074897399	1064
210	1110	0.011118897399	14
211	1055	0.011074897399	1064
211	1110	0.011118897399	14
212	1055	0.011074897399	1064
212	1110	0.011118897399	14
213	1055	0.011074897399	1064
213	1110	0.011118897399	14
214	1056	0.011074897399	1064
214	1111	0.011118897399	14
215	1056	0.011074897399	1064
215	1111	0.011118897399	14
216	1056	0.011074897399	1064
216	1111	0.011118897399	14
217	1056	0.011074897399	1064
217	1111	0.011118897399	14
218	1056	0.011074897399	1064
218	1111	0.011118897399	14
219	1057	0.011074897399	1064
219	1112	0.011118897399	14
220	1057	0.011074897399	1064
220	1112	0.011118897399	14
221	1057	0.011074897399	1064
221	1112	0.011118897399	14
222	1057	0.011074897399	1064
222	1112	0.011118897399	14
223	1057	0.011074897399	1064
223	1112	0.011118897399	14
224	1058	0.011074897399	1064
224	1113	0.011118897399	14
225	1058	0.011074897399	1064
225	1113	0.011118897399	14
226	1058	0.011074897399	1064
226	1113	0.011118897399	14
227	1058	0.011074897399	1064
227	1113	0.011118897399	14
228	1058	0.011074897399	1064
228	1113	0.011118897399	14
239	1047	0.011074790607	1064
240	1047	0.011074790607	1064
241	1047	0.011074790607	1064
242	1047	0.011074790607	1064
262	1086	0.011116654637	0
263	1119	0.011121140161	14
264	1119	0.011121140161	14
265	1119	0.011121140161	14
266	1119	0.011121140161	14
267	1054	0.011074897399	1064
268	1054	0.011074897399	1064
269	1054	0.011074897399	1064
270	1054	0.011074897399	24000000
271	1054	0.011074897399	1036
272	1055	0.011074897399	0
272	1055	0.011074897399	4.4e-05
272	1100	0.011118897399	0
273	1056	0.011074897399	0
273	1056	0.011074897399	4.4e-05
273	1101	0.011118897399	0
274	1057	0.011074897399	0
274	1057	0.011074897399	4.4e-05
274	1102	0.011118897399	0
275	1058	0.011074897399	0
275	1058	0.011074897399	4.4e-05
275	1103	0.011118897399	0
276	1061	0.011074897399	1008
277	1061	0.011074897399	4
278	1062	0.011074897399	1000
279	1062	0.011074897399	0.001262321134
280	1062	0.011074897399	2
281	1063	0.011084897399	14
282	1064	0.011084897399	1
282	1065	0.011084897399	2
282	1104	0.011118897399	1
282	1109	0.011118897399	0
283	1104	0.011118897399	14
284	1104	0.011118897399	14
285	1104	0.011118897399	14
311	1120	0.011121140161	0
314	1120	0.011121140161	0
319	1120	0.011121140161	14
320	1120	0.011121140161	14
321	1120	0.011121140161	14
322	1120	0.011121140161	0.000430485524
vector 323 MultiRadioShowcase.host_Beginning.app[0] throughput:vector ETV
attr source throughput(packetReceived)
attr title "throughput, vector"
attr unit bps
vector 324 MultiRadioShowcase.host_Middle.app[0] throughput:vector ETV
attr source throughput(packetReceived)
attr title "throughput, vector"
attr unit bps
vector 325 MultiRadioShowcase.host_End.app[0] throughput:vector ETV
attr source throughput(packetReceived)
attr title "throughput, vector"
attr unit bps
vector 326 MultiRadioShowcase.host_DifferentApp.app[0] throughput:vector ETV
attr source throughput(packetReceived)
attr title "throughput, vector"
attr unit bps
323	1141	0.014256433291	0
324	1141	0.014256433291	0
325	1141	0.014256433291	2244600.6898655
326	1141	0.014256433291	0

