version 2
run General-0-20220529-04:28:28-4563
attr configname General
attr datetime 20220529-04:28:28
attr experiment General
attr inifile omnetpp.ini
attr iterationvars ""
attr iterationvarsf ""
attr measurement ""
attr network MultiRadioShowcase
attr processid 4563
attr repetition 0
attr replication #0
attr resultdir results
attr runnumber 0
attr seedset 0
param *.configurator.config "xml(\"<config><interface hosts='**' address='10.0.0.x' netmask='255.255.255.0'/><autoroute metric='errorRate'/></config>\")"
param *.configurator.optimizeRoutes false
param *.host*.ipv4.routingTable.netmaskRoutes "\"\""
param *.host*.numWlanInterfaces 5
param *.host*.numApps 1
param *.host*.wlan[*].radio.displayCommunicationRange true
param *.host*.app[*].localPort 100
param *.host*.app[*].destPort 100
param *.host*.app[*].messageLength 1000B
param *.host*.app[*].startTime exponential(100us)
param *.host*.app[*].sendInterval exponential(12ms)
param *.host_Beginning.app[0].typename "\"UdpBasicApp\""
param *.host_Beginning.app[0].destAddresses "\"host_End\""
param *.host_End.app[0].typename "\"UdpSink\""
param *.host_DifferentApp.app[0].typename "\"UdpBasicApp\""
param *.host_DifferentApp.app[0].destAddresses "\"host_End\""
param *.host_Middle.app[*].typename "\"UdpBasicApp\""
param *.host*.typename "\"AodvRouter\""
param **.numMediumVisualizers 4
param **.displaySignals true
param *.visualizer.interfaceTableVisualizer[0].displayInterfaceTables true
param *.visualizer.interfaceTableVisualizer[0].placementHint "\"top\""
param *.visualizer.ieee80211Visualizer[0].displayAssociations true
param *.visualizer.physicalLinkVisualizer[*].displayLinks true
param *.visualizer.dataLinkVisualizer[*].displayLinks true
param *.visualizer.networkRouteVisualizer[*].displayRoutes true
param *.visualizer.*LinkVisualizer[*].lineShift 0
param *.visualizer.networkRouteVisualizer[*].lineShift 0
param *.visualizer.networkRouteVisualizer[*].packetFilter "\"UDPData*\""
param **.arp.typename "\"GlobalArp\""

scalar MultiRadioShowcase.radioMedium.propagation "Arrival computation count" 684
scalar MultiRadioShowcase.radioMedium "transmission count" 16
scalar MultiRadioShowcase.radioMedium "signal send count" 304
scalar MultiRadioShowcase.radioMedium "reception computation count" 304
scalar MultiRadioShowcase.radioMedium "interference computation count" 948
scalar MultiRadioShowcase.radioMedium "reception decision computation count" 244
scalar MultiRadioShowcase.radioMedium "listening decision computation count" 400
scalar MultiRadioShowcase.radioMedium "reception cache hit" 84.394250513347
attr unit %
scalar MultiRadioShowcase.radioMedium "interference cache hit" 66.666666666667
attr unit %
scalar MultiRadioShowcase.radioMedium "noise cache hit" 0
attr unit %
scalar MultiRadioShowcase.radioMedium "snir cache hit" 50
attr unit %
scalar MultiRadioShowcase.radioMedium "reception decision cache hit" 50
attr unit %
scalar MultiRadioShowcase.radioMedium "reception result cache hit" 0
attr unit %
scalar MultiRadioShowcase.host_Beginning.lo[0].lo rcvdPkFromHl:count 0
attr interpolationmode none
attr source packetReceivedFromUpper
attr title "packets received from higher layer, count"
scalar MultiRadioShowcase.host_Beginning.lo[0].lo rcvdPkFromHl:sum(packetBytes) 0
attr interpolationmode none
attr source packetReceivedFromUpper
attr title "packets received from higher layer, sum(packetBytes)"
scalar MultiRadioShowcase.host_Beginning.lo[0].lo passedUpPk:count 0
attr interpolationmode none
attr source packetSentToUpper
attr title "packets passed to higher layer, count"
scalar MultiRadioShowcase.host_Beginning.lo[0].lo passedUpPk:sum(packetBytes) 0
attr interpolationmode none
attr source packetSentToUpper
attr title "packets passed to higher layer, sum(packetBytes)"
scalar MultiRadioShowcase.host_Beginning.wlan[0].mac.dcf.channelAccess.pendingQueue packetPopped:count 0
attr interpolationmode none
attr title "packet popped, count"
scalar MultiRadioShowcase.host_Beginning.wlan[0].mac.dcf.channelAccess.pendingQueue packetPopped:sum(packetBytes) 0
attr interpolationmode none
attr title "packet popped, sum(packetBytes)"
statistic MultiRadioShowcase.host_Beginning.wlan[0].mac.dcf.channelAccess.pendingQueue queueingTime:histogram
field count 0
field mean -nan
field stddev -nan
field min -nan
field max -nan
field sum 0
field sqrsum 0
attr interpolationmode none
attr source queueingTime(packetPopped)
attr title "queueing times, histogram"
attr unit s
bin	-inf	0
bin	0	0
bin	1	0
scalar MultiRadioShowcase.host_Beginning.wlan[0].mac.dcf.channelAccess.pendingQueue queueLength:max -nan
attr interpolationmode sample-hold
attr source "count(packetPushed) - count(packetPopped) - count(packetRemoved) - count(packetDropped)"
attr title "queue length, max"
scalar MultiRadioShowcase.host_Beginning.wlan[0].mac.dcf.channelAccess.pendingQueue queueLength:timeavg -nan
attr interpolationmode sample-hold
attr source "count(packetPushed) - count(packetPopped) - count(packetRemoved) - count(packetDropped)"
attr title "queue length, timeavg"
scalar MultiRadioShowcase.host_Beginning.wlan[0].mac.dcf.channelAccess.pendingQueue packetPushed:count 0
attr interpolationmode none
attr title "packet pushed, count"
scalar MultiRadioShowcase.host_Beginning.wlan[0].mac.dcf.channelAccess.pendingQueue packetPushed:sum(packetBytes) 0
attr interpolationmode none
attr title "packet pushed, sum(packetBytes)"
scalar MultiRadioShowcase.host_Beginning.wlan[0].mac.dcf.channelAccess.pendingQueue packetDropQueueOverflow:count 0
attr interpolationmode none
attr source packetDropReasonIsQueueOverflow(packetDropped)
attr title "packet drops: queue overflow, count"
scalar MultiRadioShowcase.host_Beginning.wlan[0].mac.dcf.channelAccess.pendingQueue packetDropQueueOverflow:sum(packetBytes) 0
attr interpolationmode none
attr source packetDropReasonIsQueueOverflow(packetDropped)
attr title "packet drops: queue overflow, sum(packetBytes)"
scalar MultiRadioShowcase.host_Beginning.wlan[0].mac.dcf.channelAccess.pendingQueue packetRemoved:count 0
attr interpolationmode none
attr title "packets removed, count"
scalar MultiRadioShowcase.host_Beginning.wlan[0].mac.dcf.channelAccess.pendingQueue packetRemoved:sum(packetBytes) 0
attr interpolationmode none
attr title "packets removed, sum(packetBytes)"
statistic MultiRadioShowcase.host_Beginning.wlan[0].mac.dcf.channelAccess.inProgressFrames queueingTime:histogram
field count 0
field mean -nan
field stddev -nan
field min -nan
field max -nan
field sum 0
field sqrsum 0
attr interpolationmode none
attr source queueingTime(packetDequeued)
attr title "queueing times, histogram"
bin	-inf	0
bin	0	0
bin	1	0
scalar MultiRadioShowcase.host_Beginning.wlan[0].mac.dcf.channelAccess.inProgressFrames queueLength:max -nan
attr interpolationmode sample-hold
attr source "count(packetEnqueued) - count(packetDequeued)"
attr title "queue length, max"
scalar MultiRadioShowcase.host_Beginning.wlan[0].mac.dcf.channelAccess.inProgressFrames queueLength:timeavg -nan
attr interpolationmode sample-hold
attr source "count(packetEnqueued) - count(packetDequeued)"
attr title "queue length, timeavg"
scalar MultiRadioShowcase.host_Beginning.wlan[0].mac.dcf.channelAccess.contention channelAccessGranted:count 0
attr title "channel access granted, count"
scalar MultiRadioShowcase.host_Beginning.wlan[0].mac.dcf.channelAccess.contention stateChanged:count 66
attr interpolationmode none
attr title "contention state changed, count"
scalar MultiRadioShowcase.host_Beginning.wlan[0].mac.dcf.channelAccess channelOwnershipChanged:count 0
attr interpolationmode sample-hold
attr title "channel ownership, count"
scalar MultiRadioShowcase.host_Beginning.wlan[0].mac.dcf.originatorMacDataService packetAggregated:count 0
attr title "packets aggregated, count"
scalar MultiRadioShowcase.host_Beginning.wlan[0].mac.dcf.originatorMacDataService packetFragmented:count 0
attr title "packets fragmented, count"
scalar MultiRadioShowcase.host_Beginning.wlan[0].mac.dcf.recipientMacDataService packetDeaggregated:count 0
attr title "packets deaggregated, count"
scalar MultiRadioShowcase.host_Beginning.wlan[0].mac.dcf.recipientMacDataService packetDefragmented:count 0
attr title "packets defragmented, count"
scalar MultiRadioShowcase.host_Beginning.wlan[0].mac.dcf.recipientMacDataService packetDropDuplicateDetected:count 0
attr interpolationmode none
attr source packetDropReasonIsDuplicateDetected(packetDropped)
attr title "packet drops: duplicate detected, count"
scalar MultiRadioShowcase.host_Beginning.wlan[0].mac.dcf.recipientMacDataService packetDropDuplicateDetected:sum(packetBytes) 0
attr interpolationmode none
attr source packetDropReasonIsDuplicateDetected(packetDropped)
attr title "packet drops: duplicate detected, sum(packetBytes)"
scalar MultiRadioShowcase.host_Beginning.wlan[0].mac.dcf.recoveryProcedure retryLimitReached:count 0
attr title "retry limit reached, count"
scalar MultiRadioShowcase.host_Beginning.wlan[0].mac.dcf frameSequenceFinished:count 0
attr title "finished frame sequences, count"
statistic MultiRadioShowcase.host_Beginning.wlan[0].mac.dcf frameSequenceDuration:histogram
field count 0
field mean -nan
field stddev -nan
field min -nan
field max -nan
field sum 0
field sqrsum 0
attr source frameSequenceDuration(frameSequenceFinished)
attr title "frame sequence durations, histogram"
bin	-inf	0
bin	0	0
bin	1	0
statistic MultiRadioShowcase.host_Beginning.wlan[0].mac.dcf frameSequenceNumPackets:histogram
field count 0
field mean -nan
field stddev -nan
field min -nan
field max -nan
field sum 0
field sqrsum 0
attr source frameSequenceNumPackets(frameSequenceFinished)
attr title "frame sequences: number of packets, histogram"
bin	-inf	0
bin	0	0
bin	1	0
scalar MultiRadioShowcase.host_Beginning.wlan[0].mac.dcf packetReceivedFromPeer:count 0
attr interpolationmode none
attr title "packets received, count"
scalar MultiRadioShowcase.host_Beginning.wlan[0].mac.dcf packetReceivedFromPeer:sum(packetBytes) 0
attr interpolationmode none
attr title "packets received, sum(packetBytes)"
scalar MultiRadioShowcase.host_Beginning.wlan[0].mac.dcf packetReceivedFromPeerUnicast:count 0
attr interpolationmode none
attr source ieee80211Unicast(packetReceivedFromPeer)
attr title "packets received: unicast, count"
scalar MultiRadioShowcase.host_Beginning.wlan[0].mac.dcf packetReceivedFromPeerUnicast:sum(packetBytes) 0
attr interpolationmode none
attr source ieee80211Unicast(packetReceivedFromPeer)
attr title "packets received: unicast, sum(packetBytes)"
scalar MultiRadioShowcase.host_Beginning.wlan[0].mac.dcf packetReceivedFromPeerMulticast:count 0
attr interpolationmode none
attr source ieee80211Multicast(packetReceivedFromPeer)
attr title "packets received: multicast, count"
scalar MultiRadioShowcase.host_Beginning.wlan[0].mac.dcf packetReceivedFromPeerMulticast:sum(packetBytes) 0
attr interpolationmode none
attr source ieee80211Multicast(packetReceivedFromPeer)
attr title "packets received: multicast, sum(packetBytes)"
scalar MultiRadioShowcase.host_Beginning.wlan[0].mac.dcf packetReceivedFromPeerBroadcast:count 0
attr interpolationmode none
attr source ieee80211Broadcast(packetReceivedFromPeer)
attr title "packets received: broadcast, count"
scalar MultiRadioShowcase.host_Beginning.wlan[0].mac.dcf packetReceivedFromPeerBroadcast:sum(packetBytes) 0
attr interpolationmode none
attr source ieee80211Broadcast(packetReceivedFromPeer)
attr title "packets received: broadcast, sum(packetBytes)"
scalar MultiRadioShowcase.host_Beginning.wlan[0].mac.dcf packetReceivedFromPeerWithRetry:count 0
attr interpolationmode none
attr source ieee80211Retry(packetReceivedFromPeer)
attr title "packets received: with retry, count"
scalar MultiRadioShowcase.host_Beginning.wlan[0].mac.dcf packetReceivedFromPeerWithRetry:sum(packetBytes) 0
attr interpolationmode none
attr source ieee80211Retry(packetReceivedFromPeer)
attr title "packets received: with retry, sum(packetBytes)"
scalar MultiRadioShowcase.host_Beginning.wlan[0].mac.dcf packetReceivedFromPeerWithoutRetry:count 0
attr interpolationmode none
attr source ieee80211NotRetry(packetReceivedFromPeer)
attr title "packets received: without retry, count"
scalar MultiRadioShowcase.host_Beginning.wlan[0].mac.dcf packetReceivedFromPeerWithoutRetry:sum(packetBytes) 0
attr interpolationmode none
attr source ieee80211NotRetry(packetReceivedFromPeer)
attr title "packets received: without retry, sum(packetBytes)"
scalar MultiRadioShowcase.host_Beginning.wlan[0].mac.dcf packetSentToPeer:count 0
attr interpolationmode none
attr title "packets sent, count"
scalar MultiRadioShowcase.host_Beginning.wlan[0].mac.dcf packetSentToPeer:sum(packetBytes) 0
attr interpolationmode none
attr title "packets sent, sum(packetBytes)"
scalar MultiRadioShowcase.host_Beginning.wlan[0].mac.dcf packetSentToPeerUnicast:count 0
attr interpolationmode none
attr source ieee80211Unicast(packetSentToPeer)
attr title "packets sent: unicast, count"
scalar MultiRadioShowcase.host_Beginning.wlan[0].mac.dcf packetSentToPeerUnicast:sum(packetBytes) 0
attr interpolationmode none
attr source ieee80211Unicast(packetSentToPeer)
attr title "packets sent: unicast, sum(packetBytes)"
scalar MultiRadioShowcase.host_Beginning.wlan[0].mac.dcf packetSentToPeerMulticast:count 0
attr interpolationmode none
attr source ieee80211Multicast(packetSentToPeer)
attr title "packets sent: multicast, count"
scalar MultiRadioShowcase.host_Beginning.wlan[0].mac.dcf packetSentToPeerMulticast:sum(packetBytes) 0
attr interpolationmode none
attr source ieee80211Multicast(packetSentToPeer)
attr title "packets sent: multicast, sum(packetBytes)"
scalar MultiRadioShowcase.host_Beginning.wlan[0].mac.dcf packetSentToPeerBroadcast:count 0
attr interpolationmode none
attr source ieee80211Broadcast(packetSentToPeer)
attr title "packets sent: broadcast , count"
scalar MultiRadioShowcase.host_Beginning.wlan[0].mac.dcf packetSentToPeerBroadcast:sum(packetBytes) 0
attr interpolationmode none
attr source ieee80211Broadcast(packetSentToPeer)
attr title "packets sent: broadcast , sum(packetBytes)"
scalar MultiRadioShowcase.host_Beginning.wlan[0].mac.dcf packetSentToPeerWithRetry:count 0
attr interpolationmode none
attr source ieee80211Retry(packetSentToPeer)
attr title "packets sent: with retry, count"
scalar MultiRadioShowcase.host_Beginning.wlan[0].mac.dcf packetSentToPeerWithRetry:sum(packetBytes) 0
attr interpolationmode none
attr source ieee80211Retry(packetSentToPeer)
attr title "packets sent: with retry, sum(packetBytes)"
scalar MultiRadioShowcase.host_Beginning.wlan[0].mac.dcf packetSentToPeerWithoutRetry:count 0
attr interpolationmode none
attr source ieee80211NotRetry(packetSentToPeer)
attr title "packets sent: without retry, count"
scalar MultiRadioShowcase.host_Beginning.wlan[0].mac.dcf packetSentToPeerWithoutRetry:sum(packetBytes) 0
attr interpolationmode none
attr source ieee80211NotRetry(packetSentToPeer)
attr title "packets sent: without retry, sum(packetBytes)"
scalar MultiRadioShowcase.host_Beginning.wlan[0].mac.dcf packetDrop:count 12
attr interpolationmode none
attr source packetDropped
attr title "packet drops, count"
scalar MultiRadioShowcase.host_Beginning.wlan[0].mac.dcf packetDrop:sum(packetBytes) 8568
attr interpolationmode none
attr source packetDropped
attr title "packet drops, sum(packetBytes)"
scalar MultiRadioShowcase.host_Beginning.wlan[0].mac.dcf packetDropNotAddressedToUs:count 12
attr interpolationmode none
attr source packetDropReasonIsNotAddressedToUs(packetDropped)
attr title "packet drops: not addressed to us, count"
scalar MultiRadioShowcase.host_Beginning.wlan[0].mac.dcf packetDropNotAddressedToUs:sum(packetBytes) 8568
attr interpolationmode none
attr source packetDropReasonIsNotAddressedToUs(packetDropped)
attr title "packet drops: not addressed to us, sum(packetBytes)"
scalar MultiRadioShowcase.host_Beginning.wlan[0].mac.dcf packetDropQueueOverflow:count 0
attr interpolationmode none
attr source packetDropReasonIsQueueOverflow(packetDropped)
attr title "packet drops: queue overflow, count"
scalar MultiRadioShowcase.host_Beginning.wlan[0].mac.dcf packetDropQueueOverflow:sum(packetBytes) 0
attr interpolationmode none
attr source packetDropReasonIsQueueOverflow(packetDropped)
attr title "packet drops: queue overflow, sum(packetBytes)"
scalar MultiRadioShowcase.host_Beginning.wlan[0].mac.dcf packetDropRetryLimitReached:count 0
attr interpolationmode none
attr source packetDropReasonIsRetryLimitReached(packetDropped)
attr title "packet drops: retry limit reached, count"
scalar MultiRadioShowcase.host_Beginning.wlan[0].mac.dcf packetDropRetryLimitReached:sum(packetBytes) 0
attr interpolationmode none
attr source packetDropReasonIsRetryLimitReached(packetDropped)
attr title "packet drops: retry limit reached, sum(packetBytes)"
scalar MultiRadioShowcase.host_Beginning.wlan[0].mac.dcf linkBroken:count 0
attr interpolationmode none
attr title "link breaks, count"
scalar MultiRadioShowcase.host_Beginning.wlan[0].mac packetReceivedFromLower:count 12
attr interpolationmode none
attr title "packets received from lower layer, count"
scalar MultiRadioShowcase.host_Beginning.wlan[0].mac packetReceivedFromLower:sum(packetBytes) 8568
attr interpolationmode none
attr title "packets received from lower layer, sum(packetBytes)"
scalar MultiRadioShowcase.host_Beginning.wlan[0].mac packetSentToLower:count 0
attr interpolationmode none
attr title "packets sent to lower layer, count"
scalar MultiRadioShowcase.host_Beginning.wlan[0].mac packetSentToLower:sum(packetBytes) 0
attr interpolationmode none
attr title "packets sent to lower layer, sum(packetBytes)"
scalar MultiRadioShowcase.host_Beginning.wlan[0].mac packetReceivedFromUpper:count 0
attr interpolationmode none
attr title "packets received from upper layer, count"
scalar MultiRadioShowcase.host_Beginning.wlan[0].mac packetReceivedFromUpper:sum(packetBytes) 0
attr interpolationmode none
attr title "packets received from upper layer, sum(packetBytes)"
scalar MultiRadioShowcase.host_Beginning.wlan[0].mac packetSentToUpper:count 0
attr interpolationmode none
attr title "packets sent to upper layer, count"
scalar MultiRadioShowcase.host_Beginning.wlan[0].mac packetSentToUpper:sum(packetBytes) 0
attr interpolationmode none
attr title "packets sent to upper layer, sum(packetBytes)"
scalar MultiRadioShowcase.host_Beginning.wlan[0].mac packetDrop:count 12
attr interpolationmode none
attr source packetDropped
attr title "packet drops, count"
scalar MultiRadioShowcase.host_Beginning.wlan[0].mac packetDrop:sum(packetBytes) 8568
attr interpolationmode none
attr source packetDropped
attr title "packet drops, sum(packetBytes)"
scalar MultiRadioShowcase.host_Beginning.wlan[0].mac packetDropIncorrectlyReceived:count 0
attr interpolationmode none
attr source packetDropReasonIsIncorrectlyReceived(packetDropped)
attr title "packet drops: incorrectly received, count"
scalar MultiRadioShowcase.host_Beginning.wlan[0].mac packetDropIncorrectlyReceived:sum(packetBytes) 0
attr interpolationmode none
attr source packetDropReasonIsIncorrectlyReceived(packetDropped)
attr title "packet drops: incorrectly received, sum(packetBytes)"
scalar MultiRadioShowcase.host_Beginning.wlan[0].mac packetDropNotAddressedToUs:count 12
attr interpolationmode none
attr source packetDropReasonIsNotAddressedToUs(packetDropped)
attr title "packet drops: not addressed to us, count"
scalar MultiRadioShowcase.host_Beginning.wlan[0].mac packetDropNotAddressedToUs:sum(packetBytes) 8568
attr interpolationmode none
attr source packetDropReasonIsNotAddressedToUs(packetDropped)
attr title "packet drops: not addressed to us, sum(packetBytes)"
scalar MultiRadioShowcase.host_Beginning.wlan[0].mac packetDropQueueOverflow:count 0
attr interpolationmode none
attr source packetDropReasonIsQueueOverflow(packetDropped)
attr title "packet drops: queue overflow, count"
scalar MultiRadioShowcase.host_Beginning.wlan[0].mac packetDropQueueOverflow:sum(packetBytes) 0
attr interpolationmode none
attr source packetDropReasonIsQueueOverflow(packetDropped)
attr title "packet drops: queue overflow, sum(packetBytes)"
scalar MultiRadioShowcase.host_Beginning.wlan[0].mac packetDropRetryLimitReached:count 0
attr interpolationmode none
attr source packetDropReasonIsRetryLimitReached(packetDropped)
attr title "packet drops: retry limit reached, count"
scalar MultiRadioShowcase.host_Beginning.wlan[0].mac packetDropRetryLimitReached:sum(packetBytes) 0
attr interpolationmode none
attr source packetDropReasonIsRetryLimitReached(packetDropped)
attr title "packet drops: retry limit reached, sum(packetBytes)"
scalar MultiRadioShowcase.host_Beginning.wlan[0].mac packetDropDuplicateDetected:count 0
attr interpolationmode none
attr source packetDropReasonIsDuplicateDetected(packetDropped)
attr title "packet drops: duplicate detected, count"
scalar MultiRadioShowcase.host_Beginning.wlan[0].mac packetDropDuplicateDetected:sum(packetBytes) 0
attr interpolationmode none
attr source packetDropReasonIsDuplicateDetected(packetDropped)
attr title "packet drops: duplicate detected, sum(packetBytes)"
scalar MultiRadioShowcase.host_Beginning.wlan[0].mac packetDropOther:count 0
attr interpolationmode none
attr source packetDropReasonIsOther(packetDropped)
attr title "packet drops: other, count"
scalar MultiRadioShowcase.host_Beginning.wlan[0].mac packetDropOther:sum(packetBytes) 0
attr interpolationmode none
attr source packetDropReasonIsOther(packetDropped)
attr title "packet drops: other, sum(packetBytes)"
scalar MultiRadioShowcase.host_Beginning.wlan[0].mac linkBroken:count 0
attr interpolationmode none
attr title "link breaks, count"
statistic MultiRadioShowcase.host_Beginning.wlan[0].radio radioChannel:histogram
field count 1
field mean 0
field stddev -nan
field min 0
field max 0
field sum 0
field sqrsum 0
attr interpolationmode sample-hold
attr source radioChannelChanged
attr title "Radio channel, histogram"
bin	-inf	0
bin	-0.5	0
bin	-0.48	0
bin	-0.46	0
bin	-0.44	0
bin	-0.42	0
bin	-0.4	0
bin	-0.38	0
bin	-0.36	0
bin	-0.34	0
bin	-0.32	0
bin	-0.3	0
bin	-0.28	0
bin	-0.26	0
bin	-0.24	0
bin	-0.22	0
bin	-0.2	0
bin	-0.18	0
bin	-0.16	0
bin	-0.14	0
bin	-0.12	0
bin	-0.1	0
bin	-0.08	0
bin	-0.06	0
bin	-0.04	0
bin	-0.02	0
bin	0	1
bin	0.02	0
bin	0.04	0
bin	0.06	0
bin	0.08	0
bin	0.1	0
bin	0.12	0
bin	0.14	0
bin	0.16	0
bin	0.18	0
bin	0.2	0
bin	0.22	0
bin	0.24	0
bin	0.26	0
bin	0.28	0
bin	0.3	0
bin	0.32	0
bin	0.34	0
bin	0.36	0
bin	0.38	0
bin	0.4	0
bin	0.42	0
bin	0.44	0
bin	0.46	0
bin	0.48	0
bin	0.5	0
scalar MultiRadioShowcase.host_Beginning.wlan[0].radio radioMode:count 3
attr interpolationmode sample-hold
attr source radioModeChanged
attr title "Radio mode, count"
scalar MultiRadioShowcase.host_Beginning.wlan[0].radio receptionState:count 25
attr interpolationmode sample-hold
attr source receptionStateChanged
attr title "Radio reception state, count"
scalar MultiRadioShowcase.host_Beginning.wlan[0].radio transmissionState:count 0
attr interpolationmode sample-hold
attr source transmissionStateChanged
attr title "Radio transmission state, count"
statistic MultiRadioShowcase.host_Beginning.wlan[0].radio minSnir:histogram
field count 12
field mean 166666683759.27
field stddev 577350263806.85
field min 477.16166569617
field max 2000000000000
field sum 2000000205111.3
field sqrsum 4e+24
attr source minimumSnir(packetSentToUpper)
attr title "Min SNIR, histogram"
bin	-inf	0
bin	0	11
bin	50000000000	0
bin	100000000000	0
bin	150000000000	0
bin	200000000000	0
bin	250000000000	0
bin	300000000000	0
bin	350000000000	0
bin	400000000000	0
bin	450000000000	0
bin	500000000000	0
bin	550000000000	0
bin	600000000000	0
bin	650000000000	0
bin	700000000000	0
bin	750000000000	0
bin	800000000000	0
bin	850000000000	0
bin	900000000000	0
bin	950000000000	0
bin	1000000000000	0
bin	1050000000000	0
bin	1100000000000	0
bin	1150000000000	0
bin	1200000000000	0
bin	1250000000000	0
bin	1300000000000	0
bin	1350000000000	0
bin	1400000000000	0
bin	1450000000000	0
bin	1500000000000	0
bin	1550000000000	0
bin	1600000000000	0
bin	1650000000000	0
bin	1700000000000	0
bin	1750000000000	0
bin	1800000000000	0
bin	1850000000000	0
bin	1900000000000	0
bin	1950000000000	0
bin	2000000000000	1
bin	2050000000000	0
bin	2100000000000	0
bin	2150000000000	0
bin	2200000000000	0
bin	2250000000000	0
bin	2300000000000	0
bin	2350000000000	0
bin	2400000000000	0
bin	2450000000000	0
bin	2500000000000	0
statistic MultiRadioShowcase.host_Beginning.wlan[0].radio packetErrorRate:histogram
field count 12
field mean 0
field stddev 0
field min 0
field max 0
field sum 0
field sqrsum 0
attr source packetErrorRate(packetSentToUpper)
attr title "Packet error rate, histogram"
bin	-inf	0
bin	-0.5	0
bin	-0.48	0
bin	-0.46	0
bin	-0.44	0
bin	-0.42	0
bin	-0.4	0
bin	-0.38	0
bin	-0.36	0
bin	-0.34	0
bin	-0.32	0
bin	-0.3	0
bin	-0.28	0
bin	-0.26	0
bin	-0.24	0
bin	-0.22	0
bin	-0.2	0
bin	-0.18	0
bin	-0.16	0
bin	-0.14	0
bin	-0.12	0
bin	-0.1	0
bin	-0.08	0
bin	-0.06	0
bin	-0.04	0
bin	-0.02	0
bin	0	12
bin	0.02	0
bin	0.04	0
bin	0.06	0
bin	0.08	0
bin	0.1	0
bin	0.12	0
bin	0.14	0
bin	0.16	0
bin	0.18	0
bin	0.2	0
bin	0.22	0
bin	0.24	0
bin	0.26	0
bin	0.28	0
bin	0.3	0
bin	0.32	0
bin	0.34	0
bin	0.36	0
bin	0.38	0
bin	0.4	0
bin	0.42	0
bin	0.44	0
bin	0.46	0
bin	0.48	0
bin	0.5	0
statistic MultiRadioShowcase.host_Beginning.wlan[0].radio bitErrorRate:histogram
field count 0
field mean -nan
field stddev -nan
field min -nan
field max -nan
field sum 0
field sqrsum 0
attr source bitErrorRate(packetSentToUpper)
attr title "Bit error rate, histogram"
bin	-inf	0
bin	0	0
bin	1	0
statistic MultiRadioShowcase.host_Beginning.wlan[0].radio symbolErrorRate:histogram
field count 0
field mean -nan
field stddev -nan
field min -nan
field max -nan
field sum 0
field sqrsum 0
attr source symbolErrorRate(packetSentToUpper)
attr title "Symbol error rate, histogram"
bin	-inf	0
bin	0	0
bin	1	0
scalar MultiRadioShowcase.host_Beginning.wlan[1].mac.dcf.channelAccess.pendingQueue packetPopped:count 0
attr interpolationmode none
attr title "packet popped, count"
scalar MultiRadioShowcase.host_Beginning.wlan[1].mac.dcf.channelAccess.pendingQueue packetPopped:sum(packetBytes) 0
attr interpolationmode none
attr title "packet popped, sum(packetBytes)"
statistic MultiRadioShowcase.host_Beginning.wlan[1].mac.dcf.channelAccess.pendingQueue queueingTime:histogram
field count 0
field mean -nan
field stddev -nan
field min -nan
field max -nan
field sum 0
field sqrsum 0
attr interpolationmode none
attr source queueingTime(packetPopped)
attr title "queueing times, histogram"
attr unit s
bin	-inf	0
bin	0	0
bin	1	0
scalar MultiRadioShowcase.host_Beginning.wlan[1].mac.dcf.channelAccess.pendingQueue queueLength:max -nan
attr interpolationmode sample-hold
attr source "count(packetPushed) - count(packetPopped) - count(packetRemoved) - count(packetDropped)"
attr title "queue length, max"
scalar MultiRadioShowcase.host_Beginning.wlan[1].mac.dcf.channelAccess.pendingQueue queueLength:timeavg -nan
attr interpolationmode sample-hold
attr source "count(packetPushed) - count(packetPopped) - count(packetRemoved) - count(packetDropped)"
attr title "queue length, timeavg"
scalar MultiRadioShowcase.host_Beginning.wlan[1].mac.dcf.channelAccess.pendingQueue packetPushed:count 0
attr interpolationmode none
attr title "packet pushed, count"
scalar MultiRadioShowcase.host_Beginning.wlan[1].mac.dcf.channelAccess.pendingQueue packetPushed:sum(packetBytes) 0
attr interpolationmode none
attr title "packet pushed, sum(packetBytes)"
scalar MultiRadioShowcase.host_Beginning.wlan[1].mac.dcf.channelAccess.pendingQueue packetDropQueueOverflow:count 0
attr interpolationmode none
attr source packetDropReasonIsQueueOverflow(packetDropped)
attr title "packet drops: queue overflow, count"
scalar MultiRadioShowcase.host_Beginning.wlan[1].mac.dcf.channelAccess.pendingQueue packetDropQueueOverflow:sum(packetBytes) 0
attr interpolationmode none
attr source packetDropReasonIsQueueOverflow(packetDropped)
attr title "packet drops: queue overflow, sum(packetBytes)"
scalar MultiRadioShowcase.host_Beginning.wlan[1].mac.dcf.channelAccess.pendingQueue packetRemoved:count 0
attr interpolationmode none
attr title "packets removed, count"
scalar MultiRadioShowcase.host_Beginning.wlan[1].mac.dcf.channelAccess.pendingQueue packetRemoved:sum(packetBytes) 0
attr interpolationmode none
attr title "packets removed, sum(packetBytes)"
statistic MultiRadioShowcase.host_Beginning.wlan[1].mac.dcf.channelAccess.inProgressFrames queueingTime:histogram
field count 0
field mean -nan
field stddev -nan
field min -nan
field max -nan
field sum 0
field sqrsum 0
attr interpolationmode none
attr source queueingTime(packetDequeued)
attr title "queueing times, histogram"
bin	-inf	0
bin	0	0
bin	1	0
scalar MultiRadioShowcase.host_Beginning.wlan[1].mac.dcf.channelAccess.inProgressFrames queueLength:max -nan
attr interpolationmode sample-hold
attr source "count(packetEnqueued) - count(packetDequeued)"
attr title "queue length, max"
scalar MultiRadioShowcase.host_Beginning.wlan[1].mac.dcf.channelAccess.inProgressFrames queueLength:timeavg -nan
attr interpolationmode sample-hold
attr source "count(packetEnqueued) - count(packetDequeued)"
attr title "queue length, timeavg"
scalar MultiRadioShowcase.host_Beginning.wlan[1].mac.dcf.channelAccess.contention channelAccessGranted:count 0
attr title "channel access granted, count"
scalar MultiRadioShowcase.host_Beginning.wlan[1].mac.dcf.channelAccess.contention stateChanged:count 66
attr interpolationmode none
attr title "contention state changed, count"
scalar MultiRadioShowcase.host_Beginning.wlan[1].mac.dcf.channelAccess channelOwnershipChanged:count 0
attr interpolationmode sample-hold
attr title "channel ownership, count"
scalar MultiRadioShowcase.host_Beginning.wlan[1].mac.dcf.originatorMacDataService packetAggregated:count 0
attr title "packets aggregated, count"
scalar MultiRadioShowcase.host_Beginning.wlan[1].mac.dcf.originatorMacDataService packetFragmented:count 0
attr title "packets fragmented, count"
scalar MultiRadioShowcase.host_Beginning.wlan[1].mac.dcf.recipientMacDataService packetDeaggregated:count 0
attr title "packets deaggregated, count"
scalar MultiRadioShowcase.host_Beginning.wlan[1].mac.dcf.recipientMacDataService packetDefragmented:count 0
attr title "packets defragmented, count"
scalar MultiRadioShowcase.host_Beginning.wlan[1].mac.dcf.recipientMacDataService packetDropDuplicateDetected:count 0
attr interpolationmode none
attr source packetDropReasonIsDuplicateDetected(packetDropped)
attr title "packet drops: duplicate detected, count"
scalar MultiRadioShowcase.host_Beginning.wlan[1].mac.dcf.recipientMacDataService packetDropDuplicateDetected:sum(packetBytes) 0
attr interpolationmode none
attr source packetDropReasonIsDuplicateDetected(packetDropped)
attr title "packet drops: duplicate detected, sum(packetBytes)"
scalar MultiRadioShowcase.host_Beginning.wlan[1].mac.dcf.recoveryProcedure retryLimitReached:count 0
attr title "retry limit reached, count"
scalar MultiRadioShowcase.host_Beginning.wlan[1].mac.dcf frameSequenceFinished:count 0
attr title "finished frame sequences, count"
statistic MultiRadioShowcase.host_Beginning.wlan[1].mac.dcf frameSequenceDuration:histogram
field count 0
field mean -nan
field stddev -nan
field min -nan
field max -nan
field sum 0
field sqrsum 0
attr source frameSequenceDuration(frameSequenceFinished)
attr title "frame sequence durations, histogram"
bin	-inf	0
bin	0	0
bin	1	0
statistic MultiRadioShowcase.host_Beginning.wlan[1].mac.dcf frameSequenceNumPackets:histogram
field count 0
field mean -nan
field stddev -nan
field min -nan
field max -nan
field sum 0
field sqrsum 0
attr source frameSequenceNumPackets(frameSequenceFinished)
attr title "frame sequences: number of packets, histogram"
bin	-inf	0
bin	0	0
bin	1	0
scalar MultiRadioShowcase.host_Beginning.wlan[1].mac.dcf packetReceivedFromPeer:count 0
attr interpolationmode none
attr title "packets received, count"
scalar MultiRadioShowcase.host_Beginning.wlan[1].mac.dcf packetReceivedFromPeer:sum(packetBytes) 0
attr interpolationmode none
attr title "packets received, sum(packetBytes)"
scalar MultiRadioShowcase.host_Beginning.wlan[1].mac.dcf packetReceivedFromPeerUnicast:count 0
attr interpolationmode none
attr source ieee80211Unicast(packetReceivedFromPeer)
attr title "packets received: unicast, count"
scalar MultiRadioShowcase.host_Beginning.wlan[1].mac.dcf packetReceivedFromPeerUnicast:sum(packetBytes) 0
attr interpolationmode none
attr source ieee80211Unicast(packetReceivedFromPeer)
attr title "packets received: unicast, sum(packetBytes)"
scalar MultiRadioShowcase.host_Beginning.wlan[1].mac.dcf packetReceivedFromPeerMulticast:count 0
attr interpolationmode none
attr source ieee80211Multicast(packetReceivedFromPeer)
attr title "packets received: multicast, count"
scalar MultiRadioShowcase.host_Beginning.wlan[1].mac.dcf packetReceivedFromPeerMulticast:sum(packetBytes) 0
attr interpolationmode none
attr source ieee80211Multicast(packetReceivedFromPeer)
attr title "packets received: multicast, sum(packetBytes)"
scalar MultiRadioShowcase.host_Beginning.wlan[1].mac.dcf packetReceivedFromPeerBroadcast:count 0
attr interpolationmode none
attr source ieee80211Broadcast(packetReceivedFromPeer)
attr title "packets received: broadcast, count"
scalar MultiRadioShowcase.host_Beginning.wlan[1].mac.dcf packetReceivedFromPeerBroadcast:sum(packetBytes) 0
attr interpolationmode none
attr source ieee80211Broadcast(packetReceivedFromPeer)
attr title "packets received: broadcast, sum(packetBytes)"
scalar MultiRadioShowcase.host_Beginning.wlan[1].mac.dcf packetReceivedFromPeerWithRetry:count 0
attr interpolationmode none
attr source ieee80211Retry(packetReceivedFromPeer)
attr title "packets received: with retry, count"
scalar MultiRadioShowcase.host_Beginning.wlan[1].mac.dcf packetReceivedFromPeerWithRetry:sum(packetBytes) 0
attr interpolationmode none
attr source ieee80211Retry(packetReceivedFromPeer)
attr title "packets received: with retry, sum(packetBytes)"
scalar MultiRadioShowcase.host_Beginning.wlan[1].mac.dcf packetReceivedFromPeerWithoutRetry:count 0
attr interpolationmode none
attr source ieee80211NotRetry(packetReceivedFromPeer)
attr title "packets received: without retry, count"
scalar MultiRadioShowcase.host_Beginning.wlan[1].mac.dcf packetReceivedFromPeerWithoutRetry:sum(packetBytes) 0
attr interpolationmode none
attr source ieee80211NotRetry(packetReceivedFromPeer)
attr title "packets received: without retry, sum(packetBytes)"
scalar MultiRadioShowcase.host_Beginning.wlan[1].mac.dcf packetSentToPeer:count 0
attr interpolationmode none
attr title "packets sent, count"
scalar MultiRadioShowcase.host_Beginning.wlan[1].mac.dcf packetSentToPeer:sum(packetBytes) 0
attr interpolationmode none
attr title "packets sent, sum(packetBytes)"
scalar MultiRadioShowcase.host_Beginning.wlan[1].mac.dcf packetSentToPeerUnicast:count 0
attr interpolationmode none
attr source ieee80211Unicast(packetSentToPeer)
attr title "packets sent: unicast, count"
scalar MultiRadioShowcase.host_Beginning.wlan[1].mac.dcf packetSentToPeerUnicast:sum(packetBytes) 0
attr interpolationmode none
attr source ieee80211Unicast(packetSentToPeer)
attr title "packets sent: unicast, sum(packetBytes)"
scalar MultiRadioShowcase.host_Beginning.wlan[1].mac.dcf packetSentToPeerMulticast:count 0
attr interpolationmode none
attr source ieee80211Multicast(packetSentToPeer)
attr title "packets sent: multicast, count"
scalar MultiRadioShowcase.host_Beginning.wlan[1].mac.dcf packetSentToPeerMulticast:sum(packetBytes) 0
attr interpolationmode none
attr source ieee80211Multicast(packetSentToPeer)
attr title "packets sent: multicast, sum(packetBytes)"
scalar MultiRadioShowcase.host_Beginning.wlan[1].mac.dcf packetSentToPeerBroadcast:count 0
attr interpolationmode none
attr source ieee80211Broadcast(packetSentToPeer)
attr title "packets sent: broadcast , count"
scalar MultiRadioShowcase.host_Beginning.wlan[1].mac.dcf packetSentToPeerBroadcast:sum(packetBytes) 0
attr interpolationmode none
attr source ieee80211Broadcast(packetSentToPeer)
attr title "packets sent: broadcast , sum(packetBytes)"
scalar MultiRadioShowcase.host_Beginning.wlan[1].mac.dcf packetSentToPeerWithRetry:count 0
attr interpolationmode none
attr source ieee80211Retry(packetSentToPeer)
attr title "packets sent: with retry, count"
scalar MultiRadioShowcase.host_Beginning.wlan[1].mac.dcf packetSentToPeerWithRetry:sum(packetBytes) 0
attr interpolationmode none
attr source ieee80211Retry(packetSentToPeer)
attr title "packets sent: with retry, sum(packetBytes)"
scalar MultiRadioShowcase.host_Beginning.wlan[1].mac.dcf packetSentToPeerWithoutRetry:count 0
attr interpolationmode none
attr source ieee80211NotRetry(packetSentToPeer)
attr title "packets sent: without retry, count"
scalar MultiRadioShowcase.host_Beginning.wlan[1].mac.dcf packetSentToPeerWithoutRetry:sum(packetBytes) 0
attr interpolationmode none
attr source ieee80211NotRetry(packetSentToPeer)
attr title "packets sent: without retry, sum(packetBytes)"
scalar MultiRadioShowcase.host_Beginning.wlan[1].mac.dcf packetDrop:count 12
attr interpolationmode none
attr source packetDropped
attr title "packet drops, count"
scalar MultiRadioShowcase.host_Beginning.wlan[1].mac.dcf packetDrop:sum(packetBytes) 8568
attr interpolationmode none
attr source packetDropped
attr title "packet drops, sum(packetBytes)"
scalar MultiRadioShowcase.host_Beginning.wlan[1].mac.dcf packetDropNotAddressedToUs:count 12
attr interpolationmode none
attr source packetDropReasonIsNotAddressedToUs(packetDropped)
attr title "packet drops: not addressed to us, count"
scalar MultiRadioShowcase.host_Beginning.wlan[1].mac.dcf packetDropNotAddressedToUs:sum(packetBytes) 8568
attr interpolationmode none
attr source packetDropReasonIsNotAddressedToUs(packetDropped)
attr title "packet drops: not addressed to us, sum(packetBytes)"
scalar MultiRadioShowcase.host_Beginning.wlan[1].mac.dcf packetDropQueueOverflow:count 0
attr interpolationmode none
attr source packetDropReasonIsQueueOverflow(packetDropped)
attr title "packet drops: queue overflow, count"
scalar MultiRadioShowcase.host_Beginning.wlan[1].mac.dcf packetDropQueueOverflow:sum(packetBytes) 0
attr interpolationmode none
attr source packetDropReasonIsQueueOverflow(packetDropped)
attr title "packet drops: queue overflow, sum(packetBytes)"
scalar MultiRadioShowcase.host_Beginning.wlan[1].mac.dcf packetDropRetryLimitReached:count 0
attr interpolationmode none
attr source packetDropReasonIsRetryLimitReached(packetDropped)
attr title "packet drops: retry limit reached, count"
scalar MultiRadioShowcase.host_Beginning.wlan[1].mac.dcf packetDropRetryLimitReached:sum(packetBytes) 0
attr interpolationmode none
attr source packetDropReasonIsRetryLimitReached(packetDropped)
attr title "packet drops: retry limit reached, sum(packetBytes)"
scalar MultiRadioShowcase.host_Beginning.wlan[1].mac.dcf linkBroken:count 0
attr interpolationmode none
attr title "link breaks, count"
scalar MultiRadioShowcase.host_Beginning.wlan[1].mac packetReceivedFromLower:count 12
attr interpolationmode none
attr title "packets received from lower layer, count"
scalar MultiRadioShowcase.host_Beginning.wlan[1].mac packetReceivedFromLower:sum(packetBytes) 8568
attr interpolationmode none
attr title "packets received from lower layer, sum(packetBytes)"
scalar MultiRadioShowcase.host_Beginning.wlan[1].mac packetSentToLower:count 0
attr interpolationmode none
attr title "packets sent to lower layer, count"
scalar MultiRadioShowcase.host_Beginning.wlan[1].mac packetSentToLower:sum(packetBytes) 0
attr interpolationmode none
attr title "packets sent to lower layer, sum(packetBytes)"
scalar MultiRadioShowcase.host_Beginning.wlan[1].mac packetReceivedFromUpper:count 0
attr interpolationmode none
attr title "packets received from upper layer, count"
scalar MultiRadioShowcase.host_Beginning.wlan[1].mac packetReceivedFromUpper:sum(packetBytes) 0
attr interpolationmode none
attr title "packets received from upper layer, sum(packetBytes)"
scalar MultiRadioShowcase.host_Beginning.wlan[1].mac packetSentToUpper:count 0
attr interpolationmode none
attr title "packets sent to upper layer, count"
scalar MultiRadioShowcase.host_Beginning.wlan[1].mac packetSentToUpper:sum(packetBytes) 0
attr interpolationmode none
attr title "packets sent to upper layer, sum(packetBytes)"
scalar MultiRadioShowcase.host_Beginning.wlan[1].mac packetDrop:count 12
attr interpolationmode none
attr source packetDropped
attr title "packet drops, count"
scalar MultiRadioShowcase.host_Beginning.wlan[1].mac packetDrop:sum(packetBytes) 8568
attr interpolationmode none
attr source packetDropped
attr title "packet drops, sum(packetBytes)"
scalar MultiRadioShowcase.host_Beginning.wlan[1].mac packetDropIncorrectlyReceived:count 0
attr interpolationmode none
attr source packetDropReasonIsIncorrectlyReceived(packetDropped)
attr title "packet drops: incorrectly received, count"
scalar MultiRadioShowcase.host_Beginning.wlan[1].mac packetDropIncorrectlyReceived:sum(packetBytes) 0
attr interpolationmode none
attr source packetDropReasonIsIncorrectlyReceived(packetDropped)
attr title "packet drops: incorrectly received, sum(packetBytes)"
scalar MultiRadioShowcase.host_Beginning.wlan[1].mac packetDropNotAddressedToUs:count 12
attr interpolationmode none
attr source packetDropReasonIsNotAddressedToUs(packetDropped)
attr title "packet drops: not addressed to us, count"
scalar MultiRadioShowcase.host_Beginning.wlan[1].mac packetDropNotAddressedToUs:sum(packetBytes) 8568
attr interpolationmode none
attr source packetDropReasonIsNotAddressedToUs(packetDropped)
attr title "packet drops: not addressed to us, sum(packetBytes)"
scalar MultiRadioShowcase.host_Beginning.wlan[1].mac packetDropQueueOverflow:count 0
attr interpolationmode none
attr source packetDropReasonIsQueueOverflow(packetDropped)
attr title "packet drops: queue overflow, count"
scalar MultiRadioShowcase.host_Beginning.wlan[1].mac packetDropQueueOverflow:sum(packetBytes) 0
attr interpolationmode none
attr source packetDropReasonIsQueueOverflow(packetDropped)
attr title "packet drops: queue overflow, sum(packetBytes)"
scalar MultiRadioShowcase.host_Beginning.wlan[1].mac packetDropRetryLimitReached:count 0
attr interpolationmode none
attr source packetDropReasonIsRetryLimitReached(packetDropped)
attr title "packet drops: retry limit reached, count"
scalar MultiRadioShowcase.host_Beginning.wlan[1].mac packetDropRetryLimitReached:sum(packetBytes) 0
attr interpolationmode none
attr source packetDropReasonIsRetryLimitReached(packetDropped)
attr title "packet drops: retry limit reached, sum(packetBytes)"
scalar MultiRadioShowcase.host_Beginning.wlan[1].mac packetDropDuplicateDetected:count 0
attr interpolationmode none
attr source packetDropReasonIsDuplicateDetected(packetDropped)
attr title "packet drops: duplicate detected, count"
scalar MultiRadioShowcase.host_Beginning.wlan[1].mac packetDropDuplicateDetected:sum(packetBytes) 0
attr interpolationmode none
attr source packetDropReasonIsDuplicateDetected(packetDropped)
attr title "packet drops: duplicate detected, sum(packetBytes)"
scalar MultiRadioShowcase.host_Beginning.wlan[1].mac packetDropOther:count 0
attr interpolationmode none
attr source packetDropReasonIsOther(packetDropped)
attr title "packet drops: other, count"
scalar MultiRadioShowcase.host_Beginning.wlan[1].mac packetDropOther:sum(packetBytes) 0
attr interpolationmode none
attr source packetDropReasonIsOther(packetDropped)
attr title "packet drops: other, sum(packetBytes)"
scalar MultiRadioShowcase.host_Beginning.wlan[1].mac linkBroken:count 0
attr interpolationmode none
attr title "link breaks, count"
statistic MultiRadioShowcase.host_Beginning.wlan[1].radio radioChannel:histogram
field count 1
field mean 0
field stddev -nan
field min 0
field max 0
field sum 0
field sqrsum 0
attr interpolationmode sample-hold
attr source radioChannelChanged
attr title "Radio channel, histogram"
bin	-inf	0
bin	-0.5	0
bin	-0.48	0
bin	-0.46	0
bin	-0.44	0
bin	-0.42	0
bin	-0.4	0
bin	-0.38	0
bin	-0.36	0
bin	-0.34	0
bin	-0.32	0
bin	-0.3	0
bin	-0.28	0
bin	-0.26	0
bin	-0.24	0
bin	-0.22	0
bin	-0.2	0
bin	-0.18	0
bin	-0.16	0
bin	-0.14	0
bin	-0.12	0
bin	-0.1	0
bin	-0.08	0
bin	-0.06	0
bin	-0.04	0
bin	-0.02	0
bin	0	1
bin	0.02	0
bin	0.04	0
bin	0.06	0
bin	0.08	0
bin	0.1	0
bin	0.12	0
bin	0.14	0
bin	0.16	0
bin	0.18	0
bin	0.2	0
bin	0.22	0
bin	0.24	0
bin	0.26	0
bin	0.28	0
bin	0.3	0
bin	0.32	0
bin	0.34	0
bin	0.36	0
bin	0.38	0
bin	0.4	0
bin	0.42	0
bin	0.44	0
bin	0.46	0
bin	0.48	0
bin	0.5	0
scalar MultiRadioShowcase.host_Beginning.wlan[1].radio radioMode:count 3
attr interpolationmode sample-hold
attr source radioModeChanged
attr title "Radio mode, count"
scalar MultiRadioShowcase.host_Beginning.wlan[1].radio receptionState:count 25
attr interpolationmode sample-hold
attr source receptionStateChanged
attr title "Radio reception state, count"
scalar MultiRadioShowcase.host_Beginning.wlan[1].radio transmissionState:count 0
attr interpolationmode sample-hold
attr source transmissionStateChanged
attr title "Radio transmission state, count"
statistic MultiRadioShowcase.host_Beginning.wlan[1].radio minSnir:histogram
field count 12
field mean 166666683759.27
field stddev 577350263806.85
field min 477.16166569617
field max 2000000000000
field sum 2000000205111.3
field sqrsum 4e+24
attr source minimumSnir(packetSentToUpper)
attr title "Min SNIR, histogram"
bin	-inf	0
bin	0	11
bin	50000000000	0
bin	100000000000	0
bin	150000000000	0
bin	200000000000	0
bin	250000000000	0
bin	300000000000	0
bin	350000000000	0
bin	400000000000	0
bin	450000000000	0
bin	500000000000	0
bin	550000000000	0
bin	600000000000	0
bin	650000000000	0
bin	700000000000	0
bin	750000000000	0
bin	800000000000	0
bin	850000000000	0
bin	900000000000	0
bin	950000000000	0
bin	1000000000000	0
bin	1050000000000	0
bin	1100000000000	0
bin	1150000000000	0
bin	1200000000000	0
bin	1250000000000	0
bin	1300000000000	0
bin	1350000000000	0
bin	1400000000000	0
bin	1450000000000	0
bin	1500000000000	0
bin	1550000000000	0
bin	1600000000000	0
bin	1650000000000	0
bin	1700000000000	0
bin	1750000000000	0
bin	1800000000000	0
bin	1850000000000	0
bin	1900000000000	0
bin	1950000000000	0
bin	2000000000000	1
bin	2050000000000	0
bin	2100000000000	0
bin	2150000000000	0
bin	2200000000000	0
bin	2250000000000	0
bin	2300000000000	0
bin	2350000000000	0
bin	2400000000000	0
bin	2450000000000	0
bin	2500000000000	0
statistic MultiRadioShowcase.host_Beginning.wlan[1].radio packetErrorRate:histogram
field count 12
field mean 0
field stddev 0
field min 0
field max 0
field sum 0
field sqrsum 0
attr source packetErrorRate(packetSentToUpper)
attr title "Packet error rate, histogram"
bin	-inf	0
bin	-0.5	0
bin	-0.48	0
bin	-0.46	0
bin	-0.44	0
bin	-0.42	0
bin	-0.4	0
bin	-0.38	0
bin	-0.36	0
bin	-0.34	0
bin	-0.32	0
bin	-0.3	0
bin	-0.28	0
bin	-0.26	0
bin	-0.24	0
bin	-0.22	0
bin	-0.2	0
bin	-0.18	0
bin	-0.16	0
bin	-0.14	0
bin	-0.12	0
bin	-0.1	0
bin	-0.08	0
bin	-0.06	0
bin	-0.04	0
bin	-0.02	0
bin	0	12
bin	0.02	0
bin	0.04	0
bin	0.06	0
bin	0.08	0
bin	0.1	0
bin	0.12	0
bin	0.14	0
bin	0.16	0
bin	0.18	0
bin	0.2	0
bin	0.22	0
bin	0.24	0
bin	0.26	0
bin	0.28	0
bin	0.3	0
bin	0.32	0
bin	0.34	0
bin	0.36	0
bin	0.38	0
bin	0.4	0
bin	0.42	0
bin	0.44	0
bin	0.46	0
bin	0.48	0
bin	0.5	0
statistic MultiRadioShowcase.host_Beginning.wlan[1].radio bitErrorRate:histogram
field count 0
field mean -nan
field stddev -nan
field min -nan
field max -nan
field sum 0
field sqrsum 0
attr source bitErrorRate(packetSentToUpper)
attr title "Bit error rate, histogram"
bin	-inf	0
bin	0	0
bin	1	0
statistic MultiRadioShowcase.host_Beginning.wlan[1].radio symbolErrorRate:histogram
field count 0
field mean -nan
field stddev -nan
field min -nan
field max -nan
field sum 0
field sqrsum 0
attr source symbolErrorRate(packetSentToUpper)
attr title "Symbol error rate, histogram"
bin	-inf	0
bin	0	0
bin	1	0
scalar MultiRadioShowcase.host_Beginning.wlan[2].mac.dcf.channelAccess.pendingQueue packetPopped:count 0
attr interpolationmode none
attr title "packet popped, count"
scalar MultiRadioShowcase.host_Beginning.wlan[2].mac.dcf.channelAccess.pendingQueue packetPopped:sum(packetBytes) 0
attr interpolationmode none
attr title "packet popped, sum(packetBytes)"
statistic MultiRadioShowcase.host_Beginning.wlan[2].mac.dcf.channelAccess.pendingQueue queueingTime:histogram
field count 0
field mean -nan
field stddev -nan
field min -nan
field max -nan
field sum 0
field sqrsum 0
attr interpolationmode none
attr source queueingTime(packetPopped)
attr title "queueing times, histogram"
attr unit s
bin	-inf	0
bin	0	0
bin	1	0
scalar MultiRadioShowcase.host_Beginning.wlan[2].mac.dcf.channelAccess.pendingQueue queueLength:max -nan
attr interpolationmode sample-hold
attr source "count(packetPushed) - count(packetPopped) - count(packetRemoved) - count(packetDropped)"
attr title "queue length, max"
scalar MultiRadioShowcase.host_Beginning.wlan[2].mac.dcf.channelAccess.pendingQueue queueLength:timeavg -nan
attr interpolationmode sample-hold
attr source "count(packetPushed) - count(packetPopped) - count(packetRemoved) - count(packetDropped)"
attr title "queue length, timeavg"
scalar MultiRadioShowcase.host_Beginning.wlan[2].mac.dcf.channelAccess.pendingQueue packetPushed:count 0
attr interpolationmode none
attr title "packet pushed, count"
scalar MultiRadioShowcase.host_Beginning.wlan[2].mac.dcf.channelAccess.pendingQueue packetPushed:sum(packetBytes) 0
attr interpolationmode none
attr title "packet pushed, sum(packetBytes)"
scalar MultiRadioShowcase.host_Beginning.wlan[2].mac.dcf.channelAccess.pendingQueue packetDropQueueOverflow:count 0
attr interpolationmode none
attr source packetDropReasonIsQueueOverflow(packetDropped)
attr title "packet drops: queue overflow, count"
scalar MultiRadioShowcase.host_Beginning.wlan[2].mac.dcf.channelAccess.pendingQueue packetDropQueueOverflow:sum(packetBytes) 0
attr interpolationmode none
attr source packetDropReasonIsQueueOverflow(packetDropped)
attr title "packet drops: queue overflow, sum(packetBytes)"
scalar MultiRadioShowcase.host_Beginning.wlan[2].mac.dcf.channelAccess.pendingQueue packetRemoved:count 0
attr interpolationmode none
attr title "packets removed, count"
scalar MultiRadioShowcase.host_Beginning.wlan[2].mac.dcf.channelAccess.pendingQueue packetRemoved:sum(packetBytes) 0
attr interpolationmode none
attr title "packets removed, sum(packetBytes)"
statistic MultiRadioShowcase.host_Beginning.wlan[2].mac.dcf.channelAccess.inProgressFrames queueingTime:histogram
field count 0
field mean -nan
field stddev -nan
field min -nan
field max -nan
field sum 0
field sqrsum 0
attr interpolationmode none
attr source queueingTime(packetDequeued)
attr title "queueing times, histogram"
bin	-inf	0
bin	0	0
bin	1	0
scalar MultiRadioShowcase.host_Beginning.wlan[2].mac.dcf.channelAccess.inProgressFrames queueLength:max -nan
attr interpolationmode sample-hold
attr source "count(packetEnqueued) - count(packetDequeued)"
attr title "queue length, max"
scalar MultiRadioShowcase.host_Beginning.wlan[2].mac.dcf.channelAccess.inProgressFrames queueLength:timeavg -nan
attr interpolationmode sample-hold
attr source "count(packetEnqueued) - count(packetDequeued)"
attr title "queue length, timeavg"
scalar MultiRadioShowcase.host_Beginning.wlan[2].mac.dcf.channelAccess.contention channelAccessGranted:count 0
attr title "channel access granted, count"
scalar MultiRadioShowcase.host_Beginning.wlan[2].mac.dcf.channelAccess.contention stateChanged:count 66
attr interpolationmode none
attr title "contention state changed, count"
scalar MultiRadioShowcase.host_Beginning.wlan[2].mac.dcf.channelAccess channelOwnershipChanged:count 0
attr interpolationmode sample-hold
attr title "channel ownership, count"
scalar MultiRadioShowcase.host_Beginning.wlan[2].mac.dcf.originatorMacDataService packetAggregated:count 0
attr title "packets aggregated, count"
scalar MultiRadioShowcase.host_Beginning.wlan[2].mac.dcf.originatorMacDataService packetFragmented:count 0
attr title "packets fragmented, count"
scalar MultiRadioShowcase.host_Beginning.wlan[2].mac.dcf.recipientMacDataService packetDeaggregated:count 0
attr title "packets deaggregated, count"
scalar MultiRadioShowcase.host_Beginning.wlan[2].mac.dcf.recipientMacDataService packetDefragmented:count 0
attr title "packets defragmented, count"
scalar MultiRadioShowcase.host_Beginning.wlan[2].mac.dcf.recipientMacDataService packetDropDuplicateDetected:count 0
attr interpolationmode none
attr source packetDropReasonIsDuplicateDetected(packetDropped)
attr title "packet drops: duplicate detected, count"
scalar MultiRadioShowcase.host_Beginning.wlan[2].mac.dcf.recipientMacDataService packetDropDuplicateDetected:sum(packetBytes) 0
attr interpolationmode none
attr source packetDropReasonIsDuplicateDetected(packetDropped)
attr title "packet drops: duplicate detected, sum(packetBytes)"
scalar MultiRadioShowcase.host_Beginning.wlan[2].mac.dcf.recoveryProcedure retryLimitReached:count 0
attr title "retry limit reached, count"
scalar MultiRadioShowcase.host_Beginning.wlan[2].mac.dcf frameSequenceFinished:count 0
attr title "finished frame sequences, count"
statistic MultiRadioShowcase.host_Beginning.wlan[2].mac.dcf frameSequenceDuration:histogram
field count 0
field mean -nan
field stddev -nan
field min -nan
field max -nan
field sum 0
field sqrsum 0
attr source frameSequenceDuration(frameSequenceFinished)
attr title "frame sequence durations, histogram"
bin	-inf	0
bin	0	0
bin	1	0
statistic MultiRadioShowcase.host_Beginning.wlan[2].mac.dcf frameSequenceNumPackets:histogram
field count 0
field mean -nan
field stddev -nan
field min -nan
field max -nan
field sum 0
field sqrsum 0
attr source frameSequenceNumPackets(frameSequenceFinished)
attr title "frame sequences: number of packets, histogram"
bin	-inf	0
bin	0	0
bin	1	0
scalar MultiRadioShowcase.host_Beginning.wlan[2].mac.dcf packetReceivedFromPeer:count 0
attr interpolationmode none
attr title "packets received, count"
scalar MultiRadioShowcase.host_Beginning.wlan[2].mac.dcf packetReceivedFromPeer:sum(packetBytes) 0
attr interpolationmode none
attr title "packets received, sum(packetBytes)"
scalar MultiRadioShowcase.host_Beginning.wlan[2].mac.dcf packetReceivedFromPeerUnicast:count 0
attr interpolationmode none
attr source ieee80211Unicast(packetReceivedFromPeer)
attr title "packets received: unicast, count"
scalar MultiRadioShowcase.host_Beginning.wlan[2].mac.dcf packetReceivedFromPeerUnicast:sum(packetBytes) 0
attr interpolationmode none
attr source ieee80211Unicast(packetReceivedFromPeer)
attr title "packets received: unicast, sum(packetBytes)"
scalar MultiRadioShowcase.host_Beginning.wlan[2].mac.dcf packetReceivedFromPeerMulticast:count 0
attr interpolationmode none
attr source ieee80211Multicast(packetReceivedFromPeer)
attr title "packets received: multicast, count"
scalar MultiRadioShowcase.host_Beginning.wlan[2].mac.dcf packetReceivedFromPeerMulticast:sum(packetBytes) 0
attr interpolationmode none
attr source ieee80211Multicast(packetReceivedFromPeer)
attr title "packets received: multicast, sum(packetBytes)"
scalar MultiRadioShowcase.host_Beginning.wlan[2].mac.dcf packetReceivedFromPeerBroadcast:count 0
attr interpolationmode none
attr source ieee80211Broadcast(packetReceivedFromPeer)
attr title "packets received: broadcast, count"
scalar MultiRadioShowcase.host_Beginning.wlan[2].mac.dcf packetReceivedFromPeerBroadcast:sum(packetBytes) 0
attr interpolationmode none
attr source ieee80211Broadcast(packetReceivedFromPeer)
attr title "packets received: broadcast, sum(packetBytes)"
scalar MultiRadioShowcase.host_Beginning.wlan[2].mac.dcf packetReceivedFromPeerWithRetry:count 0
attr interpolationmode none
attr source ieee80211Retry(packetReceivedFromPeer)
attr title "packets received: with retry, count"
scalar MultiRadioShowcase.host_Beginning.wlan[2].mac.dcf packetReceivedFromPeerWithRetry:sum(packetBytes) 0
attr interpolationmode none
attr source ieee80211Retry(packetReceivedFromPeer)
attr title "packets received: with retry, sum(packetBytes)"
scalar MultiRadioShowcase.host_Beginning.wlan[2].mac.dcf packetReceivedFromPeerWithoutRetry:count 0
attr interpolationmode none
attr source ieee80211NotRetry(packetReceivedFromPeer)
attr title "packets received: without retry, count"
scalar MultiRadioShowcase.host_Beginning.wlan[2].mac.dcf packetReceivedFromPeerWithoutRetry:sum(packetBytes) 0
attr interpolationmode none
attr source ieee80211NotRetry(packetReceivedFromPeer)
attr title "packets received: without retry, sum(packetBytes)"
scalar MultiRadioShowcase.host_Beginning.wlan[2].mac.dcf packetSentToPeer:count 0
attr interpolationmode none
attr title "packets sent, count"
scalar MultiRadioShowcase.host_Beginning.wlan[2].mac.dcf packetSentToPeer:sum(packetBytes) 0
attr interpolationmode none
attr title "packets sent, sum(packetBytes)"
scalar MultiRadioShowcase.host_Beginning.wlan[2].mac.dcf packetSentToPeerUnicast:count 0
attr interpolationmode none
attr source ieee80211Unicast(packetSentToPeer)
attr title "packets sent: unicast, count"
scalar MultiRadioShowcase.host_Beginning.wlan[2].mac.dcf packetSentToPeerUnicast:sum(packetBytes) 0
attr interpolationmode none
attr source ieee80211Unicast(packetSentToPeer)
attr title "packets sent: unicast, sum(packetBytes)"
scalar MultiRadioShowcase.host_Beginning.wlan[2].mac.dcf packetSentToPeerMulticast:count 0
attr interpolationmode none
attr source ieee80211Multicast(packetSentToPeer)
attr title "packets sent: multicast, count"
scalar MultiRadioShowcase.host_Beginning.wlan[2].mac.dcf packetSentToPeerMulticast:sum(packetBytes) 0
attr interpolationmode none
attr source ieee80211Multicast(packetSentToPeer)
attr title "packets sent: multicast, sum(packetBytes)"
scalar MultiRadioShowcase.host_Beginning.wlan[2].mac.dcf packetSentToPeerBroadcast:count 0
attr interpolationmode none
attr source ieee80211Broadcast(packetSentToPeer)
attr title "packets sent: broadcast , count"
scalar MultiRadioShowcase.host_Beginning.wlan[2].mac.dcf packetSentToPeerBroadcast:sum(packetBytes) 0
attr interpolationmode none
attr source ieee80211Broadcast(packetSentToPeer)
attr title "packets sent: broadcast , sum(packetBytes)"
scalar MultiRadioShowcase.host_Beginning.wlan[2].mac.dcf packetSentToPeerWithRetry:count 0
attr interpolationmode none
attr source ieee80211Retry(packetSentToPeer)
attr title "packets sent: with retry, count"
scalar MultiRadioShowcase.host_Beginning.wlan[2].mac.dcf packetSentToPeerWithRetry:sum(packetBytes) 0
attr interpolationmode none
attr source ieee80211Retry(packetSentToPeer)
attr title "packets sent: with retry, sum(packetBytes)"
scalar MultiRadioShowcase.host_Beginning.wlan[2].mac.dcf packetSentToPeerWithoutRetry:count 0
attr interpolationmode none
attr source ieee80211NotRetry(packetSentToPeer)
attr title "packets sent: without retry, count"
scalar MultiRadioShowcase.host_Beginning.wlan[2].mac.dcf packetSentToPeerWithoutRetry:sum(packetBytes) 0
attr interpolationmode none
attr source ieee80211NotRetry(packetSentToPeer)
attr title "packets sent: without retry, sum(packetBytes)"
scalar MultiRadioShowcase.host_Beginning.wlan[2].mac.dcf packetDrop:count 12
attr interpolationmode none
attr source packetDropped
attr title "packet drops, count"
scalar MultiRadioShowcase.host_Beginning.wlan[2].mac.dcf packetDrop:sum(packetBytes) 8568
attr interpolationmode none
attr source packetDropped
attr title "packet drops, sum(packetBytes)"
scalar MultiRadioShowcase.host_Beginning.wlan[2].mac.dcf packetDropNotAddressedToUs:count 12
attr interpolationmode none
attr source packetDropReasonIsNotAddressedToUs(packetDropped)
attr title "packet drops: not addressed to us, count"
scalar MultiRadioShowcase.host_Beginning.wlan[2].mac.dcf packetDropNotAddressedToUs:sum(packetBytes) 8568
attr interpolationmode none
attr source packetDropReasonIsNotAddressedToUs(packetDropped)
attr title "packet drops: not addressed to us, sum(packetBytes)"
scalar MultiRadioShowcase.host_Beginning.wlan[2].mac.dcf packetDropQueueOverflow:count 0
attr interpolationmode none
attr source packetDropReasonIsQueueOverflow(packetDropped)
attr title "packet drops: queue overflow, count"
scalar MultiRadioShowcase.host_Beginning.wlan[2].mac.dcf packetDropQueueOverflow:sum(packetBytes) 0
attr interpolationmode none
attr source packetDropReasonIsQueueOverflow(packetDropped)
attr title "packet drops: queue overflow, sum(packetBytes)"
scalar MultiRadioShowcase.host_Beginning.wlan[2].mac.dcf packetDropRetryLimitReached:count 0
attr interpolationmode none
attr source packetDropReasonIsRetryLimitReached(packetDropped)
attr title "packet drops: retry limit reached, count"
scalar MultiRadioShowcase.host_Beginning.wlan[2].mac.dcf packetDropRetryLimitReached:sum(packetBytes) 0
attr interpolationmode none
attr source packetDropReasonIsRetryLimitReached(packetDropped)
attr title "packet drops: retry limit reached, sum(packetBytes)"
scalar MultiRadioShowcase.host_Beginning.wlan[2].mac.dcf linkBroken:count 0
attr interpolationmode none
attr title "link breaks, count"
scalar MultiRadioShowcase.host_Beginning.wlan[2].mac packetReceivedFromLower:count 12
attr interpolationmode none
attr title "packets received from lower layer, count"
scalar MultiRadioShowcase.host_Beginning.wlan[2].mac packetReceivedFromLower:sum(packetBytes) 8568
attr interpolationmode none
attr title "packets received from lower layer, sum(packetBytes)"
scalar MultiRadioShowcase.host_Beginning.wlan[2].mac packetSentToLower:count 0
attr interpolationmode none
attr title "packets sent to lower layer, count"
scalar MultiRadioShowcase.host_Beginning.wlan[2].mac packetSentToLower:sum(packetBytes) 0
attr interpolationmode none
attr title "packets sent to lower layer, sum(packetBytes)"
scalar MultiRadioShowcase.host_Beginning.wlan[2].mac packetReceivedFromUpper:count 0
attr interpolationmode none
attr title "packets received from upper layer, count"
scalar MultiRadioShowcase.host_Beginning.wlan[2].mac packetReceivedFromUpper:sum(packetBytes) 0
attr interpolationmode none
attr title "packets received from upper layer, sum(packetBytes)"
scalar MultiRadioShowcase.host_Beginning.wlan[2].mac packetSentToUpper:count 0
attr interpolationmode none
attr title "packets sent to upper layer, count"
scalar MultiRadioShowcase.host_Beginning.wlan[2].mac packetSentToUpper:sum(packetBytes) 0
attr interpolationmode none
attr title "packets sent to upper layer, sum(packetBytes)"
scalar MultiRadioShowcase.host_Beginning.wlan[2].mac packetDrop:count 12
attr interpolationmode none
attr source packetDropped
attr title "packet drops, count"
scalar MultiRadioShowcase.host_Beginning.wlan[2].mac packetDrop:sum(packetBytes) 8568
attr interpolationmode none
attr source packetDropped
attr title "packet drops, sum(packetBytes)"
scalar MultiRadioShowcase.host_Beginning.wlan[2].mac packetDropIncorrectlyReceived:count 0
attr interpolationmode none
attr source packetDropReasonIsIncorrectlyReceived(packetDropped)
attr title "packet drops: incorrectly received, count"
scalar MultiRadioShowcase.host_Beginning.wlan[2].mac packetDropIncorrectlyReceived:sum(packetBytes) 0
attr interpolationmode none
attr source packetDropReasonIsIncorrectlyReceived(packetDropped)
attr title "packet drops: incorrectly received, sum(packetBytes)"
scalar MultiRadioShowcase.host_Beginning.wlan[2].mac packetDropNotAddressedToUs:count 12
attr interpolationmode none
attr source packetDropReasonIsNotAddressedToUs(packetDropped)
attr title "packet drops: not addressed to us, count"
scalar MultiRadioShowcase.host_Beginning.wlan[2].mac packetDropNotAddressedToUs:sum(packetBytes) 8568
attr interpolationmode none
attr source packetDropReasonIsNotAddressedToUs(packetDropped)
attr title "packet drops: not addressed to us, sum(packetBytes)"
scalar MultiRadioShowcase.host_Beginning.wlan[2].mac packetDropQueueOverflow:count 0
attr interpolationmode none
attr source packetDropReasonIsQueueOverflow(packetDropped)
attr title "packet drops: queue overflow, count"
scalar MultiRadioShowcase.host_Beginning.wlan[2].mac packetDropQueueOverflow:sum(packetBytes) 0
attr interpolationmode none
attr source packetDropReasonIsQueueOverflow(packetDropped)
attr title "packet drops: queue overflow, sum(packetBytes)"
scalar MultiRadioShowcase.host_Beginning.wlan[2].mac packetDropRetryLimitReached:count 0
attr interpolationmode none
attr source packetDropReasonIsRetryLimitReached(packetDropped)
attr title "packet drops: retry limit reached, count"
scalar MultiRadioShowcase.host_Beginning.wlan[2].mac packetDropRetryLimitReached:sum(packetBytes) 0
attr interpolationmode none
attr source packetDropReasonIsRetryLimitReached(packetDropped)
attr title "packet drops: retry limit reached, sum(packetBytes)"
scalar MultiRadioShowcase.host_Beginning.wlan[2].mac packetDropDuplicateDetected:count 0
attr interpolationmode none
attr source packetDropReasonIsDuplicateDetected(packetDropped)
attr title "packet drops: duplicate detected, count"
scalar MultiRadioShowcase.host_Beginning.wlan[2].mac packetDropDuplicateDetected:sum(packetBytes) 0
attr interpolationmode none
attr source packetDropReasonIsDuplicateDetected(packetDropped)
attr title "packet drops: duplicate detected, sum(packetBytes)"
scalar MultiRadioShowcase.host_Beginning.wlan[2].mac packetDropOther:count 0
attr interpolationmode none
attr source packetDropReasonIsOther(packetDropped)
attr title "packet drops: other, count"
scalar MultiRadioShowcase.host_Beginning.wlan[2].mac packetDropOther:sum(packetBytes) 0
attr interpolationmode none
attr source packetDropReasonIsOther(packetDropped)
attr title "packet drops: other, sum(packetBytes)"
scalar MultiRadioShowcase.host_Beginning.wlan[2].mac linkBroken:count 0
attr interpolationmode none
attr title "link breaks, count"
statistic MultiRadioShowcase.host_Beginning.wlan[2].radio radioChannel:histogram
field count 1
field mean 0
field stddev -nan
field min 0
field max 0
field sum 0
field sqrsum 0
attr interpolationmode sample-hold
attr source radioChannelChanged
attr title "Radio channel, histogram"
bin	-inf	0
bin	-0.5	0
bin	-0.48	0
bin	-0.46	0
bin	-0.44	0
bin	-0.42	0
bin	-0.4	0
bin	-0.38	0
bin	-0.36	0
bin	-0.34	0
bin	-0.32	0
bin	-0.3	0
bin	-0.28	0
bin	-0.26	0
bin	-0.24	0
bin	-0.22	0
bin	-0.2	0
bin	-0.18	0
bin	-0.16	0
bin	-0.14	0
bin	-0.12	0
bin	-0.1	0
bin	-0.08	0
bin	-0.06	0
bin	-0.04	0
bin	-0.02	0
bin	0	1
bin	0.02	0
bin	0.04	0
bin	0.06	0
bin	0.08	0
bin	0.1	0
bin	0.12	0
bin	0.14	0
bin	0.16	0
bin	0.18	0
bin	0.2	0
bin	0.22	0
bin	0.24	0
bin	0.26	0
bin	0.28	0
bin	0.3	0
bin	0.32	0
bin	0.34	0
bin	0.36	0
bin	0.38	0
bin	0.4	0
bin	0.42	0
bin	0.44	0
bin	0.46	0
bin	0.48	0
bin	0.5	0
scalar MultiRadioShowcase.host_Beginning.wlan[2].radio radioMode:count 3
attr interpolationmode sample-hold
attr source radioModeChanged
attr title "Radio mode, count"
scalar MultiRadioShowcase.host_Beginning.wlan[2].radio receptionState:count 25
attr interpolationmode sample-hold
attr source receptionStateChanged
attr title "Radio reception state, count"
scalar MultiRadioShowcase.host_Beginning.wlan[2].radio transmissionState:count 0
attr interpolationmode sample-hold
attr source transmissionStateChanged
attr title "Radio transmission state, count"
statistic MultiRadioShowcase.host_Beginning.wlan[2].radio minSnir:histogram
field count 12
field mean 166666683759.27
field stddev 577350263806.85
field min 477.16166569617
field max 2000000000000
field sum 2000000205111.3
field sqrsum 4e+24
attr source minimumSnir(packetSentToUpper)
attr title "Min SNIR, histogram"
bin	-inf	0
bin	0	11
bin	50000000000	0
bin	100000000000	0
bin	150000000000	0
bin	200000000000	0
bin	250000000000	0
bin	300000000000	0
bin	350000000000	0
bin	400000000000	0
bin	450000000000	0
bin	500000000000	0
bin	550000000000	0
bin	600000000000	0
bin	650000000000	0
bin	700000000000	0
bin	750000000000	0
bin	800000000000	0
bin	850000000000	0
bin	900000000000	0
bin	950000000000	0
bin	1000000000000	0
bin	1050000000000	0
bin	1100000000000	0
bin	1150000000000	0
bin	1200000000000	0
bin	1250000000000	0
bin	1300000000000	0
bin	1350000000000	0
bin	1400000000000	0
bin	1450000000000	0
bin	1500000000000	0
bin	1550000000000	0
bin	1600000000000	0
bin	1650000000000	0
bin	1700000000000	0
bin	1750000000000	0
bin	1800000000000	0
bin	1850000000000	0
bin	1900000000000	0
bin	1950000000000	0
bin	2000000000000	1
bin	2050000000000	0
bin	2100000000000	0
bin	2150000000000	0
bin	2200000000000	0
bin	2250000000000	0
bin	2300000000000	0
bin	2350000000000	0
bin	2400000000000	0
bin	2450000000000	0
bin	2500000000000	0
statistic MultiRadioShowcase.host_Beginning.wlan[2].radio packetErrorRate:histogram
field count 12
field mean 0
field stddev 0
field min 0
field max 0
field sum 0
field sqrsum 0
attr source packetErrorRate(packetSentToUpper)
attr title "Packet error rate, histogram"
bin	-inf	0
bin	-0.5	0
bin	-0.48	0
bin	-0.46	0
bin	-0.44	0
bin	-0.42	0
bin	-0.4	0
bin	-0.38	0
bin	-0.36	0
bin	-0.34	0
bin	-0.32	0
bin	-0.3	0
bin	-0.28	0
bin	-0.26	0
bin	-0.24	0
bin	-0.22	0
bin	-0.2	0
bin	-0.18	0
bin	-0.16	0
bin	-0.14	0
bin	-0.12	0
bin	-0.1	0
bin	-0.08	0
bin	-0.06	0
bin	-0.04	0
bin	-0.02	0
bin	0	12
bin	0.02	0
bin	0.04	0
bin	0.06	0
bin	0.08	0
bin	0.1	0
bin	0.12	0
bin	0.14	0
bin	0.16	0
bin	0.18	0
bin	0.2	0
bin	0.22	0
bin	0.24	0
bin	0.26	0
bin	0.28	0
bin	0.3	0
bin	0.32	0
bin	0.34	0
bin	0.36	0
bin	0.38	0
bin	0.4	0
bin	0.42	0
bin	0.44	0
bin	0.46	0
bin	0.48	0
bin	0.5	0
statistic MultiRadioShowcase.host_Beginning.wlan[2].radio bitErrorRate:histogram
field count 0
field mean -nan
field stddev -nan
field min -nan
field max -nan
field sum 0
field sqrsum 0
attr source bitErrorRate(packetSentToUpper)
attr title "Bit error rate, histogram"
bin	-inf	0
bin	0	0
bin	1	0
statistic MultiRadioShowcase.host_Beginning.wlan[2].radio symbolErrorRate:histogram
field count 0
field mean -nan
field stddev -nan
field min -nan
field max -nan
field sum 0
field sqrsum 0
attr source symbolErrorRate(packetSentToUpper)
attr title "Symbol error rate, histogram"
bin	-inf	0
bin	0	0
bin	1	0
scalar MultiRadioShowcase.host_Beginning.wlan[3].mac.dcf.channelAccess.pendingQueue packetPopped:count 1
attr interpolationmode none
attr title "packet popped, count"
scalar MultiRadioShowcase.host_Beginning.wlan[3].mac.dcf.channelAccess.pendingQueue packetPopped:sum(packetBytes) 1064
attr interpolationmode none
attr title "packet popped, sum(packetBytes)"
statistic MultiRadioShowcase.host_Beginning.wlan[3].mac.dcf.channelAccess.pendingQueue queueingTime:histogram
field count 1
field mean 4.039579e-06
field stddev -nan
field min 4.039579e-06
field max 4.039579e-06
field sum 4.039579e-06
field sqrsum 1.6318198497241e-11
attr interpolationmode none
attr source queueingTime(packetPopped)
attr title "queueing times, histogram"
attr unit s
bin	-inf	0
bin	0	1
bin	0.01	0
bin	0.02	0
bin	0.03	0
bin	0.04	0
bin	0.05	0
bin	0.06	0
bin	0.07	0
bin	0.08	0
bin	0.09	0
bin	0.1	0
bin	0.11	0
bin	0.12	0
bin	0.13	0
bin	0.14	0
bin	0.15	0
bin	0.16	0
bin	0.17	0
bin	0.18	0
bin	0.19	0
bin	0.2	0
bin	0.21	0
bin	0.22	0
bin	0.23	0
bin	0.24	0
bin	0.25	0
bin	0.26	0
bin	0.27	0
bin	0.28	0
bin	0.29	0
bin	0.3	0
bin	0.31	0
bin	0.32	0
bin	0.33	0
bin	0.34	0
bin	0.35	0
bin	0.36	0
bin	0.37	0
bin	0.38	0
bin	0.39	0
bin	0.4	0
bin	0.41	0
bin	0.42	0
bin	0.43	0
bin	0.44	0
bin	0.45	0
bin	0.46	0
bin	0.47	0
bin	0.48	0
bin	0.49	0
bin	0.5	0
bin	0.51	0
scalar MultiRadioShowcase.host_Beginning.wlan[3].mac.dcf.channelAccess.pendingQueue queueLength:max 1
attr interpolationmode sample-hold
attr source "count(packetPushed) - count(packetPopped) - count(packetRemoved) - count(packetDropped)"
attr title "queue length, max"
scalar MultiRadioShowcase.host_Beginning.wlan[3].mac.dcf.channelAccess.pendingQueue queueLength:timeavg 0.00028709617916345
attr interpolationmode sample-hold
attr source "count(packetPushed) - count(packetPopped) - count(packetRemoved) - count(packetDropped)"
attr title "queue length, timeavg"
scalar MultiRadioShowcase.host_Beginning.wlan[3].mac.dcf.channelAccess.pendingQueue packetPushed:count 1
attr interpolationmode none
attr title "packet pushed, count"
scalar MultiRadioShowcase.host_Beginning.wlan[3].mac.dcf.channelAccess.pendingQueue packetPushed:sum(packetBytes) 1064
attr interpolationmode none
attr title "packet pushed, sum(packetBytes)"
scalar MultiRadioShowcase.host_Beginning.wlan[3].mac.dcf.channelAccess.pendingQueue packetDropQueueOverflow:count 0
attr interpolationmode none
attr source packetDropReasonIsQueueOverflow(packetDropped)
attr title "packet drops: queue overflow, count"
scalar MultiRadioShowcase.host_Beginning.wlan[3].mac.dcf.channelAccess.pendingQueue packetDropQueueOverflow:sum(packetBytes) 0
attr interpolationmode none
attr source packetDropReasonIsQueueOverflow(packetDropped)
attr title "packet drops: queue overflow, sum(packetBytes)"
scalar MultiRadioShowcase.host_Beginning.wlan[3].mac.dcf.channelAccess.pendingQueue packetRemoved:count 0
attr interpolationmode none
attr title "packets removed, count"
scalar MultiRadioShowcase.host_Beginning.wlan[3].mac.dcf.channelAccess.pendingQueue packetRemoved:sum(packetBytes) 0
attr interpolationmode none
attr title "packets removed, sum(packetBytes)"
statistic MultiRadioShowcase.host_Beginning.wlan[3].mac.dcf.channelAccess.inProgressFrames queueingTime:histogram
field count 1
field mean 0.00043027194
field stddev -nan
field min 0.00043027194
field max 0.00043027194
field sum 0.00043027194
field sqrsum 1.8513394235136e-07
attr interpolationmode none
attr source queueingTime(packetDequeued)
attr title "queueing times, histogram"
bin	-inf	0
bin	0	1
bin	0.01	0
bin	0.02	0
bin	0.03	0
bin	0.04	0
bin	0.05	0
bin	0.06	0
bin	0.07	0
bin	0.08	0
bin	0.09	0
bin	0.1	0
bin	0.11	0
bin	0.12	0
bin	0.13	0
bin	0.14	0
bin	0.15	0
bin	0.16	0
bin	0.17	0
bin	0.18	0
bin	0.19	0
bin	0.2	0
bin	0.21	0
bin	0.22	0
bin	0.23	0
bin	0.24	0
bin	0.25	0
bin	0.26	0
bin	0.27	0
bin	0.28	0
bin	0.29	0
bin	0.3	0
bin	0.31	0
bin	0.32	0
bin	0.33	0
bin	0.34	0
bin	0.35	0
bin	0.36	0
bin	0.37	0
bin	0.38	0
bin	0.39	0
bin	0.4	0
bin	0.41	0
bin	0.42	0
bin	0.43	0
bin	0.44	0
bin	0.45	0
bin	0.46	0
bin	0.47	0
bin	0.48	0
bin	0.49	0
bin	0.5	0
bin	0.51	0
scalar MultiRadioShowcase.host_Beginning.wlan[3].mac.dcf.channelAccess.inProgressFrames queueLength:max 1
attr interpolationmode sample-hold
attr source "count(packetEnqueued) - count(packetDequeued)"
attr title "queue length, max"
scalar MultiRadioShowcase.host_Beginning.wlan[3].mac.dcf.channelAccess.inProgressFrames queueLength:timeavg 0.030588560091868
attr interpolationmode sample-hold
attr source "count(packetEnqueued) - count(packetDequeued)"
attr title "queue length, timeavg"
scalar MultiRadioShowcase.host_Beginning.wlan[3].mac.dcf.channelAccess.contention channelAccessGranted:count 1
attr title "channel access granted, count"
scalar MultiRadioShowcase.host_Beginning.wlan[3].mac.dcf.channelAccess.contention stateChanged:count 66
attr interpolationmode none
attr title "contention state changed, count"
scalar MultiRadioShowcase.host_Beginning.wlan[3].mac.dcf.channelAccess channelOwnershipChanged:count 2
attr interpolationmode sample-hold
attr title "channel ownership, count"
scalar MultiRadioShowcase.host_Beginning.wlan[3].mac.dcf.originatorMacDataService packetAggregated:count 0
attr title "packets aggregated, count"
scalar MultiRadioShowcase.host_Beginning.wlan[3].mac.dcf.originatorMacDataService packetFragmented:count 0
attr title "packets fragmented, count"
scalar MultiRadioShowcase.host_Beginning.wlan[3].mac.dcf.recipientMacDataService packetDeaggregated:count 0
attr title "packets deaggregated, count"
scalar MultiRadioShowcase.host_Beginning.wlan[3].mac.dcf.recipientMacDataService packetDefragmented:count 0
attr title "packets defragmented, count"
scalar MultiRadioShowcase.host_Beginning.wlan[3].mac.dcf.recipientMacDataService packetDropDuplicateDetected:count 0
attr interpolationmode none
attr source packetDropReasonIsDuplicateDetected(packetDropped)
attr title "packet drops: duplicate detected, count"
scalar MultiRadioShowcase.host_Beginning.wlan[3].mac.dcf.recipientMacDataService packetDropDuplicateDetected:sum(packetBytes) 0
attr interpolationmode none
attr source packetDropReasonIsDuplicateDetected(packetDropped)
attr title "packet drops: duplicate detected, sum(packetBytes)"
scalar MultiRadioShowcase.host_Beginning.wlan[3].mac.dcf.recoveryProcedure retryLimitReached:count 0
attr title "retry limit reached, count"
scalar MultiRadioShowcase.host_Beginning.wlan[3].mac.dcf frameSequenceFinished:count 1
attr title "finished frame sequences, count"
statistic MultiRadioShowcase.host_Beginning.wlan[3].mac.dcf frameSequenceDuration:histogram
field count 1
field mean 0.00043027194
field stddev -nan
field min 0.00043027194
field max 0.00043027194
field sum 0.00043027194
field sqrsum 1.8513394235136e-07
attr source frameSequenceDuration(frameSequenceFinished)
attr title "frame sequence durations, histogram"
bin	-inf	0
bin	0	1
bin	0.01	0
bin	0.02	0
bin	0.03	0
bin	0.04	0
bin	0.05	0
bin	0.06	0
bin	0.07	0
bin	0.08	0
bin	0.09	0
bin	0.1	0
bin	0.11	0
bin	0.12	0
bin	0.13	0
bin	0.14	0
bin	0.15	0
bin	0.16	0
bin	0.17	0
bin	0.18	0
bin	0.19	0
bin	0.2	0
bin	0.21	0
bin	0.22	0
bin	0.23	0
bin	0.24	0
bin	0.25	0
bin	0.26	0
bin	0.27	0
bin	0.28	0
bin	0.29	0
bin	0.3	0
bin	0.31	0
bin	0.32	0
bin	0.33	0
bin	0.34	0
bin	0.35	0
bin	0.36	0
bin	0.37	0
bin	0.38	0
bin	0.39	0
bin	0.4	0
bin	0.41	0
bin	0.42	0
bin	0.43	0
bin	0.44	0
bin	0.45	0
bin	0.46	0
bin	0.47	0
bin	0.48	0
bin	0.49	0
bin	0.5	0
bin	0.51	0
statistic MultiRadioShowcase.host_Beginning.wlan[3].mac.dcf frameSequenceNumPackets:histogram
field count 1
field mean 2
field stddev -nan
field min 2
field max 2
field sum 2
field sqrsum 4
attr source frameSequenceNumPackets(frameSequenceFinished)
attr title "frame sequences: number of packets, histogram"
bin	-inf	0
bin	1	0
bin	2	1
bin	3	0
scalar MultiRadioShowcase.host_Beginning.wlan[3].mac.dcf packetReceivedFromPeer:count 1
attr interpolationmode none
attr title "packets received, count"
scalar MultiRadioShowcase.host_Beginning.wlan[3].mac.dcf packetReceivedFromPeer:sum(packetBytes) 14
attr interpolationmode none
attr title "packets received, sum(packetBytes)"
scalar MultiRadioShowcase.host_Beginning.wlan[3].mac.dcf packetReceivedFromPeerUnicast:count 1
attr interpolationmode none
attr source ieee80211Unicast(packetReceivedFromPeer)
attr title "packets received: unicast, count"
scalar MultiRadioShowcase.host_Beginning.wlan[3].mac.dcf packetReceivedFromPeerUnicast:sum(packetBytes) 14
attr interpolationmode none
attr source ieee80211Unicast(packetReceivedFromPeer)
attr title "packets received: unicast, sum(packetBytes)"
scalar MultiRadioShowcase.host_Beginning.wlan[3].mac.dcf packetReceivedFromPeerMulticast:count 0
attr interpolationmode none
attr source ieee80211Multicast(packetReceivedFromPeer)
attr title "packets received: multicast, count"
scalar MultiRadioShowcase.host_Beginning.wlan[3].mac.dcf packetReceivedFromPeerMulticast:sum(packetBytes) 0
attr interpolationmode none
attr source ieee80211Multicast(packetReceivedFromPeer)
attr title "packets received: multicast, sum(packetBytes)"
scalar MultiRadioShowcase.host_Beginning.wlan[3].mac.dcf packetReceivedFromPeerBroadcast:count 0
attr interpolationmode none
attr source ieee80211Broadcast(packetReceivedFromPeer)
attr title "packets received: broadcast, count"
scalar MultiRadioShowcase.host_Beginning.wlan[3].mac.dcf packetReceivedFromPeerBroadcast:sum(packetBytes) 0
attr interpolationmode none
attr source ieee80211Broadcast(packetReceivedFromPeer)
attr title "packets received: broadcast, sum(packetBytes)"
scalar MultiRadioShowcase.host_Beginning.wlan[3].mac.dcf packetReceivedFromPeerWithRetry:count 0
attr interpolationmode none
attr source ieee80211Retry(packetReceivedFromPeer)
attr title "packets received: with retry, count"
scalar MultiRadioShowcase.host_Beginning.wlan[3].mac.dcf packetReceivedFromPeerWithRetry:sum(packetBytes) 0
attr interpolationmode none
attr source ieee80211Retry(packetReceivedFromPeer)
attr title "packets received: with retry, sum(packetBytes)"
scalar MultiRadioShowcase.host_Beginning.wlan[3].mac.dcf packetReceivedFromPeerWithoutRetry:count 1
attr interpolationmode none
[...]
attr interpolationmode none
attr source ieee80211Broadcast(packetReceivedFromPeer)
attr title "packets received: broadcast, sum(packetBytes)"
scalar MultiRadioShowcase.host_DifferentApp.wlan[4].mac.dcf packetReceivedFromPeerWithRetry:count 0
attr interpolationmode none
attr source ieee80211Retry(packetReceivedFromPeer)
attr title "packets received: with retry, count"
scalar MultiRadioShowcase.host_DifferentApp.wlan[4].mac.dcf packetReceivedFromPeerWithRetry:sum(packetBytes) 0
attr interpolationmode none
attr source ieee80211Retry(packetReceivedFromPeer)
attr title "packets received: with retry, sum(packetBytes)"
scalar MultiRadioShowcase.host_DifferentApp.wlan[4].mac.dcf packetReceivedFromPeerWithoutRetry:count 0
attr interpolationmode none
attr source ieee80211NotRetry(packetReceivedFromPeer)
attr title "packets received: without retry, count"
scalar MultiRadioShowcase.host_DifferentApp.wlan[4].mac.dcf packetReceivedFromPeerWithoutRetry:sum(packetBytes) 0
attr interpolationmode none
attr source ieee80211NotRetry(packetReceivedFromPeer)
attr title "packets received: without retry, sum(packetBytes)"
scalar MultiRadioShowcase.host_DifferentApp.wlan[4].mac.dcf packetSentToPeer:count 0
attr interpolationmode none
attr title "packets sent, count"
scalar MultiRadioShowcase.host_DifferentApp.wlan[4].mac.dcf packetSentToPeer:sum(packetBytes) 0
attr interpolationmode none
attr title "packets sent, sum(packetBytes)"
scalar MultiRadioShowcase.host_DifferentApp.wlan[4].mac.dcf packetSentToPeerUnicast:count 0
attr interpolationmode none
attr source ieee80211Unicast(packetSentToPeer)
attr title "packets sent: unicast, count"
scalar MultiRadioShowcase.host_DifferentApp.wlan[4].mac.dcf packetSentToPeerUnicast:sum(packetBytes) 0
attr interpolationmode none
attr source ieee80211Unicast(packetSentToPeer)
attr title "packets sent: unicast, sum(packetBytes)"
scalar MultiRadioShowcase.host_DifferentApp.wlan[4].mac.dcf packetSentToPeerMulticast:count 0
attr interpolationmode none
attr source ieee80211Multicast(packetSentToPeer)
attr title "packets sent: multicast, count"
scalar MultiRadioShowcase.host_DifferentApp.wlan[4].mac.dcf packetSentToPeerMulticast:sum(packetBytes) 0
attr interpolationmode none
attr source ieee80211Multicast(packetSentToPeer)
attr title "packets sent: multicast, sum(packetBytes)"
scalar MultiRadioShowcase.host_DifferentApp.wlan[4].mac.dcf packetSentToPeerBroadcast:count 0
attr interpolationmode none
attr source ieee80211Broadcast(packetSentToPeer)
attr title "packets sent: broadcast , count"
scalar MultiRadioShowcase.host_DifferentApp.wlan[4].mac.dcf packetSentToPeerBroadcast:sum(packetBytes) 0
attr interpolationmode none
attr source ieee80211Broadcast(packetSentToPeer)
attr title "packets sent: broadcast , sum(packetBytes)"
scalar MultiRadioShowcase.host_DifferentApp.wlan[4].mac.dcf packetSentToPeerWithRetry:count 0
attr interpolationmode none
attr source ieee80211Retry(packetSentToPeer)
attr title "packets sent: with retry, count"
scalar MultiRadioShowcase.host_DifferentApp.wlan[4].mac.dcf packetSentToPeerWithRetry:sum(packetBytes) 0
attr interpolationmode none
attr source ieee80211Retry(packetSentToPeer)
attr title "packets sent: with retry, sum(packetBytes)"
scalar MultiRadioShowcase.host_DifferentApp.wlan[4].mac.dcf packetSentToPeerWithoutRetry:count 0
attr interpolationmode none
attr source ieee80211NotRetry(packetSentToPeer)
attr title "packets sent: without retry, count"
scalar MultiRadioShowcase.host_DifferentApp.wlan[4].mac.dcf packetSentToPeerWithoutRetry:sum(packetBytes) 0
attr interpolationmode none
attr source ieee80211NotRetry(packetSentToPeer)
attr title "packets sent: without retry, sum(packetBytes)"
scalar MultiRadioShowcase.host_DifferentApp.wlan[4].mac.dcf packetDrop:count 12
attr interpolationmode none
attr source packetDropped
attr title "packet drops, count"
scalar MultiRadioShowcase.host_DifferentApp.wlan[4].mac.dcf packetDrop:sum(packetBytes) 8568
attr interpolationmode none
attr source packetDropped
attr title "packet drops, sum(packetBytes)"
scalar MultiRadioShowcase.host_DifferentApp.wlan[4].mac.dcf packetDropNotAddressedToUs:count 12
attr interpolationmode none
attr source packetDropReasonIsNotAddressedToUs(packetDropped)
attr title "packet drops: not addressed to us, count"
scalar MultiRadioShowcase.host_DifferentApp.wlan[4].mac.dcf packetDropNotAddressedToUs:sum(packetBytes) 8568
attr interpolationmode none
attr source packetDropReasonIsNotAddressedToUs(packetDropped)
attr title "packet drops: not addressed to us, sum(packetBytes)"
scalar MultiRadioShowcase.host_DifferentApp.wlan[4].mac.dcf packetDropQueueOverflow:count 0
attr interpolationmode none
attr source packetDropReasonIsQueueOverflow(packetDropped)
attr title "packet drops: queue overflow, count"
scalar MultiRadioShowcase.host_DifferentApp.wlan[4].mac.dcf packetDropQueueOverflow:sum(packetBytes) 0
attr interpolationmode none
attr source packetDropReasonIsQueueOverflow(packetDropped)
attr title "packet drops: queue overflow, sum(packetBytes)"
scalar MultiRadioShowcase.host_DifferentApp.wlan[4].mac.dcf packetDropRetryLimitReached:count 0
attr interpolationmode none
attr source packetDropReasonIsRetryLimitReached(packetDropped)
attr title "packet drops: retry limit reached, count"
scalar MultiRadioShowcase.host_DifferentApp.wlan[4].mac.dcf packetDropRetryLimitReached:sum(packetBytes) 0
attr interpolationmode none
attr source packetDropReasonIsRetryLimitReached(packetDropped)
attr title "packet drops: retry limit reached, sum(packetBytes)"
scalar MultiRadioShowcase.host_DifferentApp.wlan[4].mac.dcf linkBroken:count 0
attr interpolationmode none
attr title "link breaks, count"
scalar MultiRadioShowcase.host_DifferentApp.wlan[4].mac packetReceivedFromLower:count 12
attr interpolationmode none
attr title "packets received from lower layer, count"
scalar MultiRadioShowcase.host_DifferentApp.wlan[4].mac packetReceivedFromLower:sum(packetBytes) 8568
attr interpolationmode none
attr title "packets received from lower layer, sum(packetBytes)"
scalar MultiRadioShowcase.host_DifferentApp.wlan[4].mac packetSentToLower:count 0
attr interpolationmode none
attr title "packets sent to lower layer, count"
scalar MultiRadioShowcase.host_DifferentApp.wlan[4].mac packetSentToLower:sum(packetBytes) 0
attr interpolationmode none
attr title "packets sent to lower layer, sum(packetBytes)"
scalar MultiRadioShowcase.host_DifferentApp.wlan[4].mac packetReceivedFromUpper:count 0
attr interpolationmode none
attr title "packets received from upper layer, count"
scalar MultiRadioShowcase.host_DifferentApp.wlan[4].mac packetReceivedFromUpper:sum(packetBytes) 0
attr interpolationmode none
attr title "packets received from upper layer, sum(packetBytes)"
scalar MultiRadioShowcase.host_DifferentApp.wlan[4].mac packetSentToUpper:count 0
attr interpolationmode none
attr title "packets sent to upper layer, count"
scalar MultiRadioShowcase.host_DifferentApp.wlan[4].mac packetSentToUpper:sum(packetBytes) 0
attr interpolationmode none
attr title "packets sent to upper layer, sum(packetBytes)"
scalar MultiRadioShowcase.host_DifferentApp.wlan[4].mac packetDrop:count 12
attr interpolationmode none
attr source packetDropped
attr title "packet drops, count"
scalar MultiRadioShowcase.host_DifferentApp.wlan[4].mac packetDrop:sum(packetBytes) 8568
attr interpolationmode none
attr source packetDropped
attr title "packet drops, sum(packetBytes)"
scalar MultiRadioShowcase.host_DifferentApp.wlan[4].mac packetDropIncorrectlyReceived:count 0
attr interpolationmode none
attr source packetDropReasonIsIncorrectlyReceived(packetDropped)
attr title "packet drops: incorrectly received, count"
scalar MultiRadioShowcase.host_DifferentApp.wlan[4].mac packetDropIncorrectlyReceived:sum(packetBytes) 0
attr interpolationmode none
attr source packetDropReasonIsIncorrectlyReceived(packetDropped)
attr title "packet drops: incorrectly received, sum(packetBytes)"
scalar MultiRadioShowcase.host_DifferentApp.wlan[4].mac packetDropNotAddressedToUs:count 12
attr interpolationmode none
attr source packetDropReasonIsNotAddressedToUs(packetDropped)
attr title "packet drops: not addressed to us, count"
scalar MultiRadioShowcase.host_DifferentApp.wlan[4].mac packetDropNotAddressedToUs:sum(packetBytes) 8568
attr interpolationmode none
attr source packetDropReasonIsNotAddressedToUs(packetDropped)
attr title "packet drops: not addressed to us, sum(packetBytes)"
scalar MultiRadioShowcase.host_DifferentApp.wlan[4].mac packetDropQueueOverflow:count 0
attr interpolationmode none
attr source packetDropReasonIsQueueOverflow(packetDropped)
attr title "packet drops: queue overflow, count"
scalar MultiRadioShowcase.host_DifferentApp.wlan[4].mac packetDropQueueOverflow:sum(packetBytes) 0
attr interpolationmode none
attr source packetDropReasonIsQueueOverflow(packetDropped)
attr title "packet drops: queue overflow, sum(packetBytes)"
scalar MultiRadioShowcase.host_DifferentApp.wlan[4].mac packetDropRetryLimitReached:count 0
attr interpolationmode none
attr source packetDropReasonIsRetryLimitReached(packetDropped)
attr title "packet drops: retry limit reached, count"
scalar MultiRadioShowcase.host_DifferentApp.wlan[4].mac packetDropRetryLimitReached:sum(packetBytes) 0
attr interpolationmode none
attr source packetDropReasonIsRetryLimitReached(packetDropped)
attr title "packet drops: retry limit reached, sum(packetBytes)"
scalar MultiRadioShowcase.host_DifferentApp.wlan[4].mac packetDropDuplicateDetected:count 0
attr interpolationmode none
attr source packetDropReasonIsDuplicateDetected(packetDropped)
attr title "packet drops: duplicate detected, count"
scalar MultiRadioShowcase.host_DifferentApp.wlan[4].mac packetDropDuplicateDetected:sum(packetBytes) 0
attr interpolationmode none
attr source packetDropReasonIsDuplicateDetected(packetDropped)
attr title "packet drops: duplicate detected, sum(packetBytes)"
scalar MultiRadioShowcase.host_DifferentApp.wlan[4].mac packetDropOther:count 0
attr interpolationmode none
attr source packetDropReasonIsOther(packetDropped)
attr title "packet drops: other, count"
scalar MultiRadioShowcase.host_DifferentApp.wlan[4].mac packetDropOther:sum(packetBytes) 0
attr interpolationmode none
attr source packetDropReasonIsOther(packetDropped)
attr title "packet drops: other, sum(packetBytes)"
scalar MultiRadioShowcase.host_DifferentApp.wlan[4].mac linkBroken:count 0
attr interpolationmode none
attr title "link breaks, count"
statistic MultiRadioShowcase.host_DifferentApp.wlan[4].radio radioChannel:histogram
field count 1
field mean 0
field stddev -nan
field min 0
field max 0
field sum 0
field sqrsum 0
attr interpolationmode sample-hold
attr source radioChannelChanged
attr title "Radio channel, histogram"
bin	-inf	0
bin	-0.5	0
bin	-0.48	0
bin	-0.46	0
bin	-0.44	0
bin	-0.42	0
bin	-0.4	0
bin	-0.38	0
bin	-0.36	0
bin	-0.34	0
bin	-0.32	0
bin	-0.3	0
bin	-0.28	0
bin	-0.26	0
bin	-0.24	0
bin	-0.22	0
bin	-0.2	0
bin	-0.18	0
bin	-0.16	0
bin	-0.14	0
bin	-0.12	0
bin	-0.1	0
bin	-0.08	0
bin	-0.06	0
bin	-0.04	0
bin	-0.02	0
bin	0	1
bin	0.02	0
bin	0.04	0
bin	0.06	0
bin	0.08	0
bin	0.1	0
bin	0.12	0
bin	0.14	0
bin	0.16	0
bin	0.18	0
bin	0.2	0
bin	0.22	0
bin	0.24	0
bin	0.26	0
bin	0.28	0
bin	0.3	0
bin	0.32	0
bin	0.34	0
bin	0.36	0
bin	0.38	0
bin	0.4	0
bin	0.42	0
bin	0.44	0
bin	0.46	0
bin	0.48	0
bin	0.5	0
scalar MultiRadioShowcase.host_DifferentApp.wlan[4].radio radioMode:count 3
attr interpolationmode sample-hold
attr source radioModeChanged
attr title "Radio mode, count"
scalar MultiRadioShowcase.host_DifferentApp.wlan[4].radio receptionState:count 25
attr interpolationmode sample-hold
attr source receptionStateChanged
attr title "Radio reception state, count"
scalar MultiRadioShowcase.host_DifferentApp.wlan[4].radio transmissionState:count 0
attr interpolationmode sample-hold
attr source transmissionStateChanged
attr title "Radio transmission state, count"
statistic MultiRadioShowcase.host_DifferentApp.wlan[4].radio minSnir:histogram
field count 12
field mean 500000005927.48
field stddev 904534030158.88
field min 503.97511574454
field max 2000000000000
field sum 6000000071129.8
field sqrsum 1.2e+25
attr source minimumSnir(packetSentToUpper)
attr title "Min SNIR, histogram"
bin	-inf	0
bin	0	9
bin	50000000000	0
bin	100000000000	0
bin	150000000000	0
bin	200000000000	0
bin	250000000000	0
bin	300000000000	0
bin	350000000000	0
bin	400000000000	0
bin	450000000000	0
bin	500000000000	0
bin	550000000000	0
bin	600000000000	0
bin	650000000000	0
bin	700000000000	0
bin	750000000000	0
bin	800000000000	0
bin	850000000000	0
bin	900000000000	0
bin	950000000000	0
bin	1000000000000	0
bin	1050000000000	0
bin	1100000000000	0
bin	1150000000000	0
bin	1200000000000	0
bin	1250000000000	0
bin	1300000000000	0
bin	1350000000000	0
bin	1400000000000	0
bin	1450000000000	0
bin	1500000000000	0
bin	1550000000000	0
bin	1600000000000	0
bin	1650000000000	0
bin	1700000000000	0
bin	1750000000000	0
bin	1800000000000	0
bin	1850000000000	0
bin	1900000000000	0
bin	1950000000000	0
bin	2000000000000	3
bin	2050000000000	0
bin	2100000000000	0
bin	2150000000000	0
bin	2200000000000	0
bin	2250000000000	0
bin	2300000000000	0
bin	2350000000000	0
bin	2400000000000	0
bin	2450000000000	0
bin	2500000000000	0
statistic MultiRadioShowcase.host_DifferentApp.wlan[4].radio packetErrorRate:histogram
field count 12
field mean 0
field stddev 0
field min 0
field max 0
field sum 0
field sqrsum 0
attr source packetErrorRate(packetSentToUpper)
attr title "Packet error rate, histogram"
bin	-inf	0
bin	-0.5	0
bin	-0.48	0
bin	-0.46	0
bin	-0.44	0
bin	-0.42	0
bin	-0.4	0
bin	-0.38	0
bin	-0.36	0
bin	-0.34	0
bin	-0.32	0
bin	-0.3	0
bin	-0.28	0
bin	-0.26	0
bin	-0.24	0
bin	-0.22	0
bin	-0.2	0
bin	-0.18	0
bin	-0.16	0
bin	-0.14	0
bin	-0.12	0
bin	-0.1	0
bin	-0.08	0
bin	-0.06	0
bin	-0.04	0
bin	-0.02	0
bin	0	12
bin	0.02	0
bin	0.04	0
bin	0.06	0
bin	0.08	0
bin	0.1	0
bin	0.12	0
bin	0.14	0
bin	0.16	0
bin	0.18	0
bin	0.2	0
bin	0.22	0
bin	0.24	0
bin	0.26	0
bin	0.28	0
bin	0.3	0
bin	0.32	0
bin	0.34	0
bin	0.36	0
bin	0.38	0
bin	0.4	0
bin	0.42	0
bin	0.44	0
bin	0.46	0
bin	0.48	0
bin	0.5	0
statistic MultiRadioShowcase.host_DifferentApp.wlan[4].radio bitErrorRate:histogram
field count 0
field mean -nan
field stddev -nan
field min -nan
field max -nan
field sum 0
field sqrsum 0
attr source bitErrorRate(packetSentToUpper)
attr title "Bit error rate, histogram"
bin	-inf	0
bin	0	0
bin	1	0
statistic MultiRadioShowcase.host_DifferentApp.wlan[4].radio symbolErrorRate:histogram
field count 0
field mean -nan
field stddev -nan
field min -nan
field max -nan
field sum 0
field sqrsum 0
attr source symbolErrorRate(packetSentToUpper)
attr title "Symbol error rate, histogram"
bin	-inf	0
bin	0	0
bin	1	0
scalar MultiRadioShowcase.host_DifferentApp.ipv4.ip packetDropAddressResolutionFailed:count 0
attr interpolationmode none
attr source packetDropReasonIsAddressResolutionFailed(packetDropped)
attr title "packet drop: address resolution failed, count"
scalar MultiRadioShowcase.host_DifferentApp.ipv4.ip packetDropAddressResolutionFailed:sum(packetBytes) 0
attr interpolationmode none
attr source packetDropReasonIsAddressResolutionFailed(packetDropped)
attr title "packet drop: address resolution failed, sum(packetBytes)"
scalar MultiRadioShowcase.host_DifferentApp.ipv4.ip packetDropHopLimitReached:count 0
attr interpolationmode none
attr source packetDropReasonIsHopLimitReached(packetDropped)
attr title "packet drop: hop limit reached, count"
scalar MultiRadioShowcase.host_DifferentApp.ipv4.ip packetDropHopLimitReached:sum(packetBytes) 0
attr interpolationmode none
attr source packetDropReasonIsHopLimitReached(packetDropped)
attr title "packet drop: hop limit reached, sum(packetBytes)"
scalar MultiRadioShowcase.host_DifferentApp.ipv4.ip packetDropForwardingDisabled:count 0
attr interpolationmode none
attr source packetDropReasonIsForwardingDisabled(packetDropped)
attr title "packet drop: forwarding disabled, count"
scalar MultiRadioShowcase.host_DifferentApp.ipv4.ip packetDropForwardingDisabled:sum(packetBytes) 0
attr interpolationmode none
attr source packetDropReasonIsForwardingDisabled(packetDropped)
attr title "packet drop: forwarding disabled, sum(packetBytes)"
scalar MultiRadioShowcase.host_DifferentApp.ipv4.ip packetDropNoInterfaceFound:count 0
attr interpolationmode none
attr source packetDropReasonIsNoInterfaceFound(packetDropped)
attr title "packet drop: no interface found, count"
scalar MultiRadioShowcase.host_DifferentApp.ipv4.ip packetDropNoInterfaceFound:sum(packetBytes) 0
attr interpolationmode none
attr source packetDropReasonIsNoInterfaceFound(packetDropped)
attr title "packet drop: no interface found, sum(packetBytes)"
scalar MultiRadioShowcase.host_DifferentApp.ipv4.ip packetDropNoRouteFound:count 0
attr interpolationmode none
attr source packetDropReasonIsNoRouteFound(packetDropped)
attr title "packet drop: no route found, count"
scalar MultiRadioShowcase.host_DifferentApp.ipv4.ip packetDropNoRouteFound:sum(packetBytes) 0
attr interpolationmode none
attr source packetDropReasonIsNoRouteFound(packetDropped)
attr title "packet drop: no route found, sum(packetBytes)"
scalar MultiRadioShowcase.host_DifferentApp.ipv4.ip packetDropUndefined:count 0
attr interpolationmode none
attr source packetDropReasonIsUndefined(packetDropped)
attr title "packet drop: undefined, count"
scalar MultiRadioShowcase.host_DifferentApp.ipv4.ip packetDropUndefined:sum(packetBytes) 0
attr interpolationmode none
attr source packetDropReasonIsUndefined(packetDropped)
attr title "packet drop: undefined, sum(packetBytes)"
scalar MultiRadioShowcase.host_DifferentApp.udp packetReceived:count 0
attr interpolationmode none
attr source packetReceived
attr title "packets received, count"
scalar MultiRadioShowcase.host_DifferentApp.udp packetReceived:sum(packetBytes) 0
attr interpolationmode none
attr source packetReceived
attr title "packets received, sum(packetBytes)"
scalar MultiRadioShowcase.host_DifferentApp.udp packetSent:count 3
attr interpolationmode none
attr source packetSent
attr title "packets sent, count"
scalar MultiRadioShowcase.host_DifferentApp.udp packetSent:sum(packetBytes) 3024
attr interpolationmode none
attr source packetSent
attr title "packets sent, sum(packetBytes)"
scalar MultiRadioShowcase.host_DifferentApp.udp passedUpPk:count 0
attr interpolationmode none
attr source packetSentToUpper
attr title "packets passed up, count"
scalar MultiRadioShowcase.host_DifferentApp.udp droppedPkWrongPort:count 0
attr interpolationmode none
attr source packetDropReasonIsNoPortFound(packetDropped)
attr title "packets dropped (wrong port), count"
scalar MultiRadioShowcase.host_DifferentApp.udp droppedPkBadChecksum:count 0
attr interpolationmode none
attr source packetDropReasonIsIncorrectlyReceived(packetDropped)
attr title "packets dropped (checksum error), count"
scalar MultiRadioShowcase.host_DifferentApp.app[0] "packets sent" 3
scalar MultiRadioShowcase.host_DifferentApp.app[0] "packets received" 0
scalar MultiRadioShowcase.host_DifferentApp.app[0] packetReceived:count 0
attr interpolationmode none
attr source packetReceived
attr title "packets received, count"
scalar MultiRadioShowcase.host_DifferentApp.app[0] packetReceived:sum(packetBytes) 0
attr interpolationmode none
attr source packetReceived
attr title "packets received, sum(packetBytes)"
statistic MultiRadioShowcase.host_DifferentApp.app[0] rcvdPkLifetime:stats
field count 0
field mean -nan
field stddev -nan
field min -nan
field max -nan
field sum 0
field sqrsum 0
attr interpolationmode none
attr source dataAge(packetReceived)
attr title "received packet lifetime, stats"
attr unit s
scalar MultiRadioShowcase.host_DifferentApp.app[0] packetSent:count 3
attr interpolationmode none
attr source packetSent
attr title "packets sent, count"
scalar MultiRadioShowcase.host_DifferentApp.app[0] packetSent:sum(packetBytes) 3000
attr interpolationmode none
attr source packetSent
attr title "packets sent, sum(packetBytes)"

