file 78598447 1655331340                                        
version 2
run CompletelyOverlappingCampus-0-20220615-15:06:11-11508
attr configname CompletelyOverlappingCampus
attr datetime 20220615-15:06:11
attr experiment CompletelyOverlappingCampus
attr inifile campus.ini
attr iterationvars ""
attr iterationvarsf ""
attr measurement ""
attr network CampusLikeEnvironment
attr processid 11508
attr repetition 0
attr replication #0
attr resultdir results
attr runnumber 0
attr seedset 0
param *.NoiseDevice*.app[*].typename "\"UdpBasicApp\""
param *.NoiseDevice*.app[*].destAddresses "\"10.0.0.63\""
param *.NoiseDevice0.app[*].sendInterval exponential(320ms)
param *.NoiseDevice1.app[*].sendInterval exponential(150ms)
param *.NoiseDevice2.app[*].sendInterval exponential(25ms)
param *.NoiseServer.app[*].typename "\"UdpSink\""
param *.EndDevice*.numWlanInterfaces 1
param *.EndDevice*.app[*].typename "\"CustomApp\""
param *.EndDevice*.app[*].destAddresses "\"10.0.0.49 10.0.0.50 10.0.0.51 10.0.0.52 10.0.0.53 10.0.0.54 10.0.0.55 10.0.0.56 10.0.0.57 10.0.0.58 10.0.0.59 10.0.0.60 10.0.0.61 10.0.0.62\""
param *.EndDevice0.app[*].sendInterval exponential(40ms)
param *.EndDevice0.app[*].layer 0
param *.EndDevice1.app[*].sendInterval exponential(40ms)
param *.EndDevice1.app[*].layer 5
param *.EndDevice2.app[*].sendInterval exponential(40ms)
param *.EndDevice2.app[*].layer 3
param *.EndDevice3.app[*].sendInterval exponential(40ms)
param *.EndDevice3.app[*].layer 7
param *.EndDevice4.app[*].sendInterval exponential(40ms)
param *.EndDevice4.app[*].layer 10
param *.EndDevice5.app[*].sendInterval exponential(40ms)
param *.EndDevice5.app[*].layer 2
param *.ServerRadio.numWlanInterfaces 14
param *.ServerRadio.app[*].typename "\"UdpSink\""
param *.MiddleDevice*.numWlanInterfaces 14
param *.MiddleDevice*.app[*].typename "\"UdpSink\""
param *.MiddleDevice*.wlan[*].radio.channelNumber 0
param *.ServerRadio.wlan[*].radio.channelNumber 0
param **.numMediumVisualizers 4
param **.displaySignals true
param **.arp.typename "\"GlobalArp\""
param *.visualizer.ieee80211Visualizer[*].displayAssociations true
param *.visualizer.physicalLinkVisualizer[*].displayLinks true
param *.visualizer.dataLinkVisualizer[*].displayLinks true
param *.visualizer.networkRouteVisualizer[*].displayRoutes true
param *.visualizer.*LinkVisualizer[*].lineShift 0
param *.visualizer.networkRouteVisualizer[*].lineShift 0
param **.wlan[*].radio.typename "\"Ieee80211DimensionalRadio\""
param **.wlan[*].radio.displayInterferenceRange true
param **.wlan[*].typename "\"Ieee80211Interface\""
param *.configurator.config "xmldoc(\"./campusConfig.xml\")"
param *.configurator.optimizeRoutes false
param **.ipv4.routingTable.netmaskRoutes "\"\""
param *.*Server*.forwarding false
param **.numApps 1
param *.NoiseDevice*.app[*].startTime exponential(10us)
param *.EndDevice*.app[*].startTime exponential(500ms)
param **.app[*].localPort 100
param **.app[*].destPort 100
param **.app[*].messageLength 1000B

vector 0 CampusLikeEnvironment.EndDevice0.wlan[0].radio radioMode:vector ETV
attr interpolationmode sample-hold
attr source radioModeChanged
attr title "Radio mode, vector"
vector 1 CampusLikeEnvironment.EndDevice0.wlan[0].radio radioChannel:vector ETV
attr interpolationmode sample-hold
attr source radioChannelChanged
attr title "Radio channel, vector"
vector 2 CampusLikeEnvironment.EndDevice1.wlan[0].radio radioMode:vector ETV
attr interpolationmode sample-hold
attr source radioModeChanged
attr title "Radio mode, vector"
vector 3 CampusLikeEnvironment.EndDevice1.wlan[0].radio radioChannel:vector ETV
attr interpolationmode sample-hold
attr source radioChannelChanged
attr title "Radio channel, vector"
vector 4 CampusLikeEnvironment.EndDevice2.wlan[0].radio radioMode:vector ETV
attr interpolationmode sample-hold
attr source radioModeChanged
attr title "Radio mode, vector"
vector 5 CampusLikeEnvironment.EndDevice2.wlan[0].radio radioChannel:vector ETV
attr interpolationmode sample-hold
attr source radioChannelChanged
attr title "Radio channel, vector"
vector 6 CampusLikeEnvironment.EndDevice3.wlan[0].radio radioMode:vector ETV
attr interpolationmode sample-hold
attr source radioModeChanged
attr title "Radio mode, vector"
vector 7 CampusLikeEnvironment.EndDevice3.wlan[0].radio radioChannel:vector ETV
attr interpolationmode sample-hold
attr source radioChannelChanged
attr title "Radio channel, vector"
vector 8 CampusLikeEnvironment.EndDevice4.wlan[0].radio radioMode:vector ETV
attr interpolationmode sample-hold
attr source radioModeChanged
attr title "Radio mode, vector"
vector 9 CampusLikeEnvironment.EndDevice4.wlan[0].radio radioChannel:vector ETV
attr interpolationmode sample-hold
attr source radioChannelChanged
attr title "Radio channel, vector"
vector 10 CampusLikeEnvironment.EndDevice5.wlan[0].radio radioMode:vector ETV
attr interpolationmode sample-hold
attr source radioModeChanged
attr title "Radio mode, vector"
vector 11 CampusLikeEnvironment.EndDevice5.wlan[0].radio radioChannel:vector ETV
attr interpolationmode sample-hold
attr source radioChannelChanged
attr title "Radio channel, vector"
vector 12 CampusLikeEnvironment.MiddleDevice0.wlan[0].radio radioMode:vector ETV
attr interpolationmode sample-hold
attr source radioModeChanged
attr title "Radio mode, vector"
vector 13 CampusLikeEnvironment.MiddleDevice0.wlan[0].radio radioChannel:vector ETV
attr interpolationmode sample-hold
attr source radioChannelChanged
attr title "Radio channel, vector"
vector 14 CampusLikeEnvironment.MiddleDevice0.wlan[1].radio radioMode:vector ETV
attr interpolationmode sample-hold
attr source radioModeChanged
attr title "Radio mode, vector"
vector 15 CampusLikeEnvironment.MiddleDevice0.wlan[1].radio radioChannel:vector ETV
attr interpolationmode sample-hold
attr source radioChannelChanged
attr title "Radio channel, vector"
vector 16 CampusLikeEnvironment.MiddleDevice0.wlan[2].radio radioMode:vector ETV
attr interpolationmode sample-hold
attr source radioModeChanged
attr title "Radio mode, vector"
vector 17 CampusLikeEnvironment.MiddleDevice0.wlan[2].radio radioChannel:vector ETV
attr interpolationmode sample-hold
attr source radioChannelChanged
attr title "Radio channel, vector"
vector 18 CampusLikeEnvironment.MiddleDevice0.wlan[3].radio radioMode:vector ETV
attr interpolationmode sample-hold
attr source radioModeChanged
attr title "Radio mode, vector"
vector 19 CampusLikeEnvironment.MiddleDevice0.wlan[3].radio radioChannel:vector ETV
attr interpolationmode sample-hold
attr source radioChannelChanged
attr title "Radio channel, vector"
vector 20 CampusLikeEnvironment.MiddleDevice0.wlan[4].radio radioMode:vector ETV
attr interpolationmode sample-hold
attr source radioModeChanged
attr title "Radio mode, vector"
vector 21 CampusLikeEnvironment.MiddleDevice0.wlan[4].radio radioChannel:vector ETV
attr interpolationmode sample-hold
attr source radioChannelChanged
attr title "Radio channel, vector"
vector 22 CampusLikeEnvironment.MiddleDevice0.wlan[5].radio radioMode:vector ETV
attr interpolationmode sample-hold
attr source radioModeChanged
attr title "Radio mode, vector"
vector 23 CampusLikeEnvironment.MiddleDevice0.wlan[5].radio radioChannel:vector ETV
attr interpolationmode sample-hold
attr source radioChannelChanged
attr title "Radio channel, vector"
vector 24 CampusLikeEnvironment.MiddleDevice0.wlan[6].radio radioMode:vector ETV
attr interpolationmode sample-hold
attr source radioModeChanged
attr title "Radio mode, vector"
vector 25 CampusLikeEnvironment.MiddleDevice0.wlan[6].radio radioChannel:vector ETV
attr interpolationmode sample-hold
attr source radioChannelChanged
attr title "Radio channel, vector"
vector 26 CampusLikeEnvironment.MiddleDevice0.wlan[7].radio radioMode:vector ETV
attr interpolationmode sample-hold
attr source radioModeChanged
attr title "Radio mode, vector"
vector 27 CampusLikeEnvironment.MiddleDevice0.wlan[7].radio radioChannel:vector ETV
attr interpolationmode sample-hold
attr source radioChannelChanged
attr title "Radio channel, vector"
vector 28 CampusLikeEnvironment.MiddleDevice0.wlan[8].radio radioMode:vector ETV
attr interpolationmode sample-hold
attr source radioModeChanged
attr title "Radio mode, vector"
vector 29 CampusLikeEnvironment.MiddleDevice0.wlan[8].radio radioChannel:vector ETV
attr interpolationmode sample-hold
attr source radioChannelChanged
attr title "Radio channel, vector"
vector 30 CampusLikeEnvironment.MiddleDevice0.wlan[9].radio radioMode:vector ETV
attr interpolationmode sample-hold
attr source radioModeChanged
attr title "Radio mode, vector"
vector 31 CampusLikeEnvironment.MiddleDevice0.wlan[9].radio radioChannel:vector ETV
attr interpolationmode sample-hold
attr source radioChannelChanged
attr title "Radio channel, vector"
vector 32 CampusLikeEnvironment.MiddleDevice0.wlan[10].radio radioMode:vector ETV
attr interpolationmode sample-hold
attr source radioModeChanged
attr title "Radio mode, vector"
vector 33 CampusLikeEnvironment.MiddleDevice0.wlan[10].radio radioChannel:vector ETV
attr interpolationmode sample-hold
attr source radioChannelChanged
attr title "Radio channel, vector"
vector 34 CampusLikeEnvironment.MiddleDevice0.wlan[11].radio radioMode:vector ETV
attr interpolationmode sample-hold
attr source radioModeChanged
attr title "Radio mode, vector"
vector 35 CampusLikeEnvironment.MiddleDevice0.wlan[11].radio radioChannel:vector ETV
attr interpolationmode sample-hold
attr source radioChannelChanged
attr title "Radio channel, vector"
vector 36 CampusLikeEnvironment.MiddleDevice0.wlan[12].radio radioMode:vector ETV
attr interpolationmode sample-hold
attr source radioModeChanged
attr title "Radio mode, vector"
vector 37 CampusLikeEnvironment.MiddleDevice0.wlan[12].radio radioChannel:vector ETV
attr interpolationmode sample-hold
attr source radioChannelChanged
attr title "Radio channel, vector"
vector 38 CampusLikeEnvironment.MiddleDevice0.wlan[13].radio radioMode:vector ETV
attr interpolationmode sample-hold
attr source radioModeChanged
attr title "Radio mode, vector"
vector 39 CampusLikeEnvironment.MiddleDevice0.wlan[13].radio radioChannel:vector ETV
attr interpolationmode sample-hold
attr source radioChannelChanged
attr title "Radio channel, vector"
vector 40 CampusLikeEnvironment.MiddleDevice1.wlan[0].radio radioMode:vector ETV
attr interpolationmode sample-hold
attr source radioModeChanged
attr title "Radio mode, vector"
vector 41 CampusLikeEnvironment.MiddleDevice1.wlan[0].radio radioChannel:vector ETV
attr interpolationmode sample-hold
attr source radioChannelChanged
attr title "Radio channel, vector"
vector 42 CampusLikeEnvironment.MiddleDevice1.wlan[1].radio radioMode:vector ETV
attr interpolationmode sample-hold
attr source radioModeChanged
attr title "Radio mode, vector"
vector 43 CampusLikeEnvironment.MiddleDevice1.wlan[1].radio radioChannel:vector ETV
attr interpolationmode sample-hold
attr source radioChannelChanged
attr title "Radio channel, vector"
vector 44 CampusLikeEnvironment.MiddleDevice1.wlan[2].radio radioMode:vector ETV
attr interpolationmode sample-hold
attr source radioModeChanged
attr title "Radio mode, vector"
vector 45 CampusLikeEnvironment.MiddleDevice1.wlan[2].radio radioChannel:vector ETV
attr interpolationmode sample-hold
attr source radioChannelChanged
attr title "Radio channel, vector"
vector 46 CampusLikeEnvironment.MiddleDevice1.wlan[3].radio radioMode:vector ETV
attr interpolationmode sample-hold
attr source radioModeChanged
attr title "Radio mode, vector"
vector 47 CampusLikeEnvironment.MiddleDevice1.wlan[3].radio radioChannel:vector ETV
attr interpolationmode sample-hold
attr source radioChannelChanged
attr title "Radio channel, vector"
vector 48 CampusLikeEnvironment.MiddleDevice1.wlan[4].radio radioMode:vector ETV
attr interpolationmode sample-hold
attr source radioModeChanged
attr title "Radio mode, vector"
vector 49 CampusLikeEnvironment.MiddleDevice1.wlan[4].radio radioChannel:vector ETV
attr interpolationmode sample-hold
attr source radioChannelChanged
attr title "Radio channel, vector"
vector 50 CampusLikeEnvironment.MiddleDevice1.wlan[5].radio radioMode:vector ETV
attr interpolationmode sample-hold
attr source radioModeChanged
attr title "Radio mode, vector"
vector 51 CampusLikeEnvironment.MiddleDevice1.wlan[5].radio radioChannel:vector ETV
attr interpolationmode sample-hold
attr source radioChannelChanged
attr title "Radio channel, vector"
vector 52 CampusLikeEnvironment.MiddleDevice1.wlan[6].radio radioMode:vector ETV
attr interpolationmode sample-hold
attr source radioModeChanged
attr title "Radio mode, vector"
vector 53 CampusLikeEnvironment.MiddleDevice1.wlan[6].radio radioChannel:vector ETV
attr interpolationmode sample-hold
attr source radioChannelChanged
attr title "Radio channel, vector"
vector 54 CampusLikeEnvironment.MiddleDevice1.wlan[7].radio radioMode:vector ETV
attr interpolationmode sample-hold
attr source radioModeChanged
attr title "Radio mode, vector"
vector 55 CampusLikeEnvironment.MiddleDevice1.wlan[7].radio radioChannel:vector ETV
attr interpolationmode sample-hold
attr source radioChannelChanged
attr title "Radio channel, vector"
vector 56 CampusLikeEnvironment.MiddleDevice1.wlan[8].radio radioMode:vector ETV
attr interpolationmode sample-hold
attr source radioModeChanged
attr title "Radio mode, vector"
vector 57 CampusLikeEnvironment.MiddleDevice1.wlan[8].radio radioChannel:vector ETV
attr interpolationmode sample-hold
attr source radioChannelChanged
attr title "Radio channel, vector"
vector 58 CampusLikeEnvironment.MiddleDevice1.wlan[9].radio radioMode:vector ETV
attr interpolationmode sample-hold
attr source radioModeChanged
attr title "Radio mode, vector"
vector 59 CampusLikeEnvironment.MiddleDevice1.wlan[9].radio radioChannel:vector ETV
attr interpolationmode sample-hold
attr source radioChannelChanged
attr title "Radio channel, vector"
vector 60 CampusLikeEnvironment.MiddleDevice1.wlan[10].radio radioMode:vector ETV
attr interpolationmode sample-hold
attr source radioModeChanged
attr title "Radio mode, vector"
vector 61 CampusLikeEnvironment.MiddleDevice1.wlan[10].radio radioChannel:vector ETV
attr interpolationmode sample-hold
attr source radioChannelChanged
attr title "Radio channel, vector"
vector 62 CampusLikeEnvironment.MiddleDevice1.wlan[11].radio radioMode:vector ETV
attr interpolationmode sample-hold
attr source radioModeChanged
attr title "Radio mode, vector"
vector 63 CampusLikeEnvironment.MiddleDevice1.wlan[11].radio radioChannel:vector ETV
attr interpolationmode sample-hold
attr source radioChannelChanged
attr title "Radio channel, vector"
vector 64 CampusLikeEnvironment.MiddleDevice1.wlan[12].radio radioMode:vector ETV
attr interpolationmode sample-hold
attr source radioModeChanged
attr title "Radio mode, vector"
vector 65 CampusLikeEnvironment.MiddleDevice1.wlan[12].radio radioChannel:vector ETV
attr interpolationmode sample-hold
attr source radioChannelChanged
attr title "Radio channel, vector"
vector 66 CampusLikeEnvironment.MiddleDevice1.wlan[13].radio radioMode:vector ETV
attr interpolationmode sample-hold
attr source radioModeChanged
attr title "Radio mode, vector"
vector 67 CampusLikeEnvironment.MiddleDevice1.wlan[13].radio radioChannel:vector ETV
attr interpolationmode sample-hold
attr source radioChannelChanged
attr title "Radio channel, vector"
vector 68 CampusLikeEnvironment.MiddleDevice2.wlan[0].radio radioMode:vector ETV
attr interpolationmode sample-hold
attr source radioModeChanged
attr title "Radio mode, vector"
vector 69 CampusLikeEnvironment.MiddleDevice2.wlan[0].radio radioChannel:vector ETV
attr interpolationmode sample-hold
attr source radioChannelChanged
attr title "Radio channel, vector"
vector 70 CampusLikeEnvironment.MiddleDevice2.wlan[1].radio radioMode:vector ETV
attr interpolationmode sample-hold
attr source radioModeChanged
attr title "Radio mode, vector"
vector 71 CampusLikeEnvironment.MiddleDevice2.wlan[1].radio radioChannel:vector ETV
attr interpolationmode sample-hold
attr source radioChannelChanged
attr title "Radio channel, vector"
vector 72 CampusLikeEnvironment.MiddleDevice2.wlan[2].radio radioMode:vector ETV
attr interpolationmode sample-hold
attr source radioModeChanged
attr title "Radio mode, vector"
vector 73 CampusLikeEnvironment.MiddleDevice2.wlan[2].radio radioChannel:vector ETV
attr interpolationmode sample-hold
attr source radioChannelChanged
attr title "Radio channel, vector"
vector 74 CampusLikeEnvironment.MiddleDevice2.wlan[3].radio radioMode:vector ETV
attr interpolationmode sample-hold
attr source radioModeChanged
attr title "Radio mode, vector"
vector 75 CampusLikeEnvironment.MiddleDevice2.wlan[3].radio radioChannel:vector ETV
attr interpolationmode sample-hold
attr source radioChannelChanged
attr title "Radio channel, vector"
vector 76 CampusLikeEnvironment.MiddleDevice2.wlan[4].radio radioMode:vector ETV
attr interpolationmode sample-hold
attr source radioModeChanged
attr title "Radio mode, vector"
vector 77 CampusLikeEnvironment.MiddleDevice2.wlan[4].radio radioChannel:vector ETV
attr interpolationmode sample-hold
attr source radioChannelChanged
attr title "Radio channel, vector"
vector 78 CampusLikeEnvironment.MiddleDevice2.wlan[5].radio radioMode:vector ETV
attr interpolationmode sample-hold
attr source radioModeChanged
attr title "Radio mode, vector"
vector 79 CampusLikeEnvironment.MiddleDevice2.wlan[5].radio radioChannel:vector ETV
attr interpolationmode sample-hold
attr source radioChannelChanged
attr title "Radio channel, vector"
vector 80 CampusLikeEnvironment.MiddleDevice2.wlan[6].radio radioMode:vector ETV
attr interpolationmode sample-hold
attr source radioModeChanged
attr title "Radio mode, vector"
vector 81 CampusLikeEnvironment.MiddleDevice2.wlan[6].radio radioChannel:vector ETV
attr interpolationmode sample-hold
attr source radioChannelChanged
attr title "Radio channel, vector"
vector 82 CampusLikeEnvironment.MiddleDevice2.wlan[7].radio radioMode:vector ETV
attr interpolationmode sample-hold
attr source radioModeChanged
attr title "Radio mode, vector"
vector 83 CampusLikeEnvironment.MiddleDevice2.wlan[7].radio radioChannel:vector ETV
attr interpolationmode sample-hold
attr source radioChannelChanged
attr title "Radio channel, vector"
vector 84 CampusLikeEnvironment.MiddleDevice2.wlan[8].radio radioMode:vector ETV
attr interpolationmode sample-hold
attr source radioModeChanged
attr title "Radio mode, vector"
vector 85 CampusLikeEnvironment.MiddleDevice2.wlan[8].radio radioChannel:vector ETV
attr interpolationmode sample-hold
attr source radioChannelChanged
attr title "Radio channel, vector"
vector 86 CampusLikeEnvironment.MiddleDevice2.wlan[9].radio radioMode:vector ETV
attr interpolationmode sample-hold
attr source radioModeChanged
attr title "Radio mode, vector"
vector 87 CampusLikeEnvironment.MiddleDevice2.wlan[9].radio radioChannel:vector ETV
attr interpolationmode sample-hold
attr source radioChannelChanged
attr title "Radio channel, vector"
vector 88 CampusLikeEnvironment.MiddleDevice2.wlan[10].radio radioMode:vector ETV
attr interpolationmode sample-hold
attr source radioModeChanged
attr title "Radio mode, vector"
vector 89 CampusLikeEnvironment.MiddleDevice2.wlan[10].radio radioChannel:vector ETV
attr interpolationmode sample-hold
attr source radioChannelChanged
attr title "Radio channel, vector"
vector 90 CampusLikeEnvironment.MiddleDevice2.wlan[11].radio radioMode:vector ETV
attr interpolationmode sample-hold
attr source radioModeChanged
attr title "Radio mode, vector"
vector 91 CampusLikeEnvironment.MiddleDevice2.wlan[11].radio radioChannel:vector ETV
attr interpolationmode sample-hold
attr source radioChannelChanged
attr title "Radio channel, vector"
vector 92 CampusLikeEnvironment.MiddleDevice2.wlan[12].radio radioMode:vector ETV
attr interpolationmode sample-hold
attr source radioModeChanged
attr title "Radio mode, vector"
vector 93 CampusLikeEnvironment.MiddleDevice2.wlan[12].radio radioChannel:vector ETV
attr interpolationmode sample-hold
attr source radioChannelChanged
attr title "Radio channel, vector"
vector 94 CampusLikeEnvironment.MiddleDevice2.wlan[13].radio radioMode:vector ETV
attr interpolationmode sample-hold
attr source radioModeChanged
attr title "Radio mode, vector"
vector 95 CampusLikeEnvironment.MiddleDevice2.wlan[13].radio radioChannel:vector ETV
attr interpolationmode sample-hold
attr source radioChannelChanged
attr title "Radio channel, vector"
vector 96 CampusLikeEnvironment.ServerRadio.wlan[0].radio radioMode:vector ETV
attr interpolationmode sample-hold
attr source radioModeChanged
attr title "Radio mode, vector"
vector 97 CampusLikeEnvironment.ServerRadio.wlan[0].radio radioChannel:vector ETV
attr interpolationmode sample-hold
attr source radioChannelChanged
attr title "Radio channel, vector"
vector 98 CampusLikeEnvironment.ServerRadio.wlan[1].radio radioMode:vector ETV
attr interpolationmode sample-hold
attr source radioModeChanged
attr title "Radio mode, vector"
vector 99 CampusLikeEnvironment.ServerRadio.wlan[1].radio radioChannel:vector ETV
attr interpolationmode sample-hold
attr source radioChannelChanged
attr title "Radio channel, vector"
vector 100 CampusLikeEnvironment.ServerRadio.wlan[2].radio radioMode:vector ETV
attr interpolationmode sample-hold
attr source radioModeChanged
attr title "Radio mode, vector"
vector 101 CampusLikeEnvironment.ServerRadio.wlan[2].radio radioChannel:vector ETV
attr interpolationmode sample-hold
attr source radioChannelChanged
attr title "Radio channel, vector"
vector 102 CampusLikeEnvironment.ServerRadio.wlan[3].radio radioMode:vector ETV
attr interpolationmode sample-hold
attr source radioModeChanged
attr title "Radio mode, vector"
vector 103 CampusLikeEnvironment.ServerRadio.wlan[3].radio radioChannel:vector ETV
attr interpolationmode sample-hold
attr source radioChannelChanged
attr title "Radio channel, vector"
vector 104 CampusLikeEnvironment.ServerRadio.wlan[4].radio radioMode:vector ETV
attr interpolationmode sample-hold
attr source radioModeChanged
attr title "Radio mode, vector"
vector 105 CampusLikeEnvironment.ServerRadio.wlan[4].radio radioChannel:vector ETV
attr interpolationmode sample-hold
attr source radioChannelChanged
attr title "Radio channel, vector"
vector 106 CampusLikeEnvironment.ServerRadio.wlan[5].radio radioMode:vector ETV
attr interpolationmode sample-hold
attr source radioModeChanged
attr title "Radio mode, vector"
vector 107 CampusLikeEnvironment.ServerRadio.wlan[5].radio radioChannel:vector ETV
attr interpolationmode sample-hold
attr source radioChannelChanged
attr title "Radio channel, vector"
vector 108 CampusLikeEnvironment.ServerRadio.wlan[6].radio radioMode:vector ETV
attr interpolationmode sample-hold
attr source radioModeChanged
attr title "Radio mode, vector"
vector 109 CampusLikeEnvironment.ServerRadio.wlan[6].radio radioChannel:vector ETV
attr interpolationmode sample-hold
attr source radioChannelChanged
attr title "Radio channel, vector"
vector 110 CampusLikeEnvironment.ServerRadio.wlan[7].radio radioMode:vector ETV
attr interpolationmode sample-hold
attr source radioModeChanged
attr title "Radio mode, vector"
vector 111 CampusLikeEnvironment.ServerRadio.wlan[7].radio radioChannel:vector ETV
attr interpolationmode sample-hold
attr source radioChannelChanged
attr title "Radio channel, vector"
vector 112 CampusLikeEnvironment.ServerRadio.wlan[8].radio radioMode:vector ETV
attr interpolationmode sample-hold
attr source radioModeChanged
attr title "Radio mode, vector"
vector 113 CampusLikeEnvironment.ServerRadio.wlan[8].radio radioChannel:vector ETV
attr interpolationmode sample-hold
attr source radioChannelChanged
attr title "Radio channel, vector"
vector 114 CampusLikeEnvironment.ServerRadio.wlan[9].radio radioMode:vector ETV
attr interpolationmode sample-hold
attr source radioModeChanged
attr title "Radio mode, vector"
vector 115 CampusLikeEnvironment.ServerRadio.wlan[9].radio radioChannel:vector ETV
attr interpolationmode sample-hold
attr source radioChannelChanged
attr title "Radio channel, vector"
vector 116 CampusLikeEnvironment.ServerRadio.wlan[10].radio radioMode:vector ETV
attr interpolationmode sample-hold
attr source radioModeChanged
attr title "Radio mode, vector"
vector 117 CampusLikeEnvironment.ServerRadio.wlan[10].radio radioChannel:vector ETV
attr interpolationmode sample-hold
attr source radioChannelChanged
attr title "Radio channel, vector"
vector 118 CampusLikeEnvironment.ServerRadio.wlan[11].radio radioMode:vector ETV
attr interpolationmode sample-hold
attr source radioModeChanged
attr title "Radio mode, vector"
vector 119 CampusLikeEnvironment.ServerRadio.wlan[11].radio radioChannel:vector ETV
attr interpolationmode sample-hold
attr source radioChannelChanged
attr title "Radio channel, vector"
vector 120 CampusLikeEnvironment.ServerRadio.wlan[12].radio radioMode:vector ETV
attr interpolationmode sample-hold
attr source radioModeChanged
attr title "Radio mode, vector"
vector 121 CampusLikeEnvironment.ServerRadio.wlan[12].radio radioChannel:vector ETV
attr interpolationmode sample-hold
attr source radioChannelChanged
attr title "Radio channel, vector"
vector 122 CampusLikeEnvironment.ServerRadio.wlan[13].radio radioMode:vector ETV
attr interpolationmode sample-hold
attr source radioModeChanged
attr title "Radio mode, vector"
vector 123 CampusLikeEnvironment.ServerRadio.wlan[13].radio radioChannel:vector ETV
attr interpolationmode sample-hold
attr source radioChannelChanged
attr title "Radio channel, vector"
vector 124 CampusLikeEnvironment.NoiseServer.wlan[0].radio radioMode:vector ETV
attr interpolationmode sample-hold
attr source radioModeChanged
attr title "Radio mode, vector"
vector 125 CampusLikeEnvironment.NoiseServer.wlan[0].radio radioChannel:vector ETV
attr interpolationmode sample-hold
attr source radioChannelChanged
attr title "Radio channel, vector"
vector 126 CampusLikeEnvironment.NoiseDevice0.wlan[0].radio radioMode:vector ETV
attr interpolationmode sample-hold
attr source radioModeChanged
attr title "Radio mode, vector"
vector 127 CampusLikeEnvironment.NoiseDevice0.wlan[0].radio radioChannel:vector ETV
attr interpolationmode sample-hold
attr source radioChannelChanged
attr title "Radio channel, vector"
vector 128 CampusLikeEnvironment.NoiseDevice1.wlan[0].radio radioMode:vector ETV
attr interpolationmode sample-hold
attr source radioModeChanged
attr title "Radio mode, vector"
vector 129 CampusLikeEnvironment.NoiseDevice1.wlan[0].radio radioChannel:vector ETV
attr interpolationmode sample-hold
attr source radioChannelChanged
attr title "Radio channel, vector"
vector 130 CampusLikeEnvironment.NoiseDevice2.wlan[0].radio radioMode:vector ETV
attr interpolationmode sample-hold
attr source radioModeChanged
attr title "Radio mode, vector"
vector 131 CampusLikeEnvironment.NoiseDevice2.wlan[0].radio radioChannel:vector ETV
attr interpolationmode sample-hold
attr source radioChannelChanged
attr title "Radio channel, vector"
vector 132 CampusLikeEnvironment.EndDevice0.wlan[0].radio receptionState:vector ETV
attr interpolationmode sample-hold
attr source receptionStateChanged
attr title "Radio reception state, vector"
vector 133 CampusLikeEnvironment.EndDevice1.wlan[0].radio receptionState:vector ETV
attr interpolationmode sample-hold
attr source receptionStateChanged
attr title "Radio reception state, vector"
vector 134 CampusLikeEnvironment.EndDevice2.wlan[0].radio receptionState:vector ETV
attr interpolationmode sample-hold
attr source receptionStateChanged
attr title "Radio reception state, vector"
vector 135 CampusLikeEnvironment.EndDevice3.wlan[0].radio receptionState:vector ETV
attr interpolationmode sample-hold
attr source receptionStateChanged
attr title "Radio reception state, vector"
vector 136 CampusLikeEnvironment.EndDevice4.wlan[0].radio receptionState:vector ETV
attr interpolationmode sample-hold
attr source receptionStateChanged
attr title "Radio reception state, vector"
vector 137 CampusLikeEnvironment.EndDevice5.wlan[0].radio receptionState:vector ETV
attr interpolationmode sample-hold
attr source receptionStateChanged
attr title "Radio reception state, vector"
vector 138 CampusLikeEnvironment.MiddleDevice0.wlan[0].radio receptionState:vector ETV
attr interpolationmode sample-hold
attr source receptionStateChanged
attr title "Radio reception state, vector"
vector 139 CampusLikeEnvironment.MiddleDevice0.wlan[1].radio receptionState:vector ETV
attr interpolationmode sample-hold
attr source receptionStateChanged
attr title "Radio reception state, vector"
vector 140 CampusLikeEnvironment.MiddleDevice0.wlan[2].radio receptionState:vector ETV
attr interpolationmode sample-hold
attr source receptionStateChanged
attr title "Radio reception state, vector"
vector 141 CampusLikeEnvironment.MiddleDevice0.wlan[3].radio receptionState:vector ETV
attr interpolationmode sample-hold
attr source receptionStateChanged
attr title "Radio reception state, vector"
vector 142 CampusLikeEnvironment.MiddleDevice0.wlan[4].radio receptionState:vector ETV
attr interpolationmode sample-hold
attr source receptionStateChanged
attr title "Radio reception state, vector"
vector 143 CampusLikeEnvironment.MiddleDevice0.wlan[5].radio receptionState:vector ETV
attr interpolationmode sample-hold
attr source receptionStateChanged
attr title "Radio reception state, vector"
vector 144 CampusLikeEnvironment.MiddleDevice0.wlan[6].radio receptionState:vector ETV
attr interpolationmode sample-hold
attr source receptionStateChanged
attr title "Radio reception state, vector"
vector 145 CampusLikeEnvironment.MiddleDevice0.wlan[7].radio receptionState:vector ETV
attr interpolationmode sample-hold
attr source receptionStateChanged
attr title "Radio reception state, vector"
vector 146 CampusLikeEnvironment.MiddleDevice0.wlan[8].radio receptionState:vector ETV
attr interpolationmode sample-hold
attr source receptionStateChanged
attr title "Radio reception state, vector"
vector 147 CampusLikeEnvironment.MiddleDevice0.wlan[9].radio receptionState:vector ETV
attr interpolationmode sample-hold
attr source receptionStateChanged
attr title "Radio reception state, vector"
vector 148 CampusLikeEnvironment.MiddleDevice0.wlan[10].radio receptionState:vector ETV
attr interpolationmode sample-hold
attr source receptionStateChanged
attr title "Radio reception state, vector"
vector 149 CampusLikeEnvironment.MiddleDevice0.wlan[11].radio receptionState:vector ETV
attr interpolationmode sample-hold
attr source receptionStateChanged
attr title "Radio reception state, vector"
vector 150 CampusLikeEnvironment.MiddleDevice0.wlan[12].radio receptionState:vector ETV
attr interpolationmode sample-hold
attr source receptionStateChanged
attr title "Radio reception state, vector"
vector 151 CampusLikeEnvironment.MiddleDevice0.wlan[13].radio receptionState:vector ETV
attr interpolationmode sample-hold
attr source receptionStateChanged
attr title "Radio reception state, vector"
vector 152 CampusLikeEnvironment.MiddleDevice1.wlan[0].radio receptionState:vector ETV
attr interpolationmode sample-hold
attr source receptionStateChanged
attr title "Radio reception state, vector"
vector 153 CampusLikeEnvironment.MiddleDevice1.wlan[1].radio receptionState:vector ETV
attr interpolationmode sample-hold
attr source receptionStateChanged
attr title "Radio reception state, vector"
vector 154 CampusLikeEnvironment.MiddleDevice1.wlan[2].radio receptionState:vector ETV
attr interpolationmode sample-hold
attr source receptionStateChanged
attr title "Radio reception state, vector"
vector 155 CampusLikeEnvironment.MiddleDevice1.wlan[3].radio receptionState:vector ETV
attr interpolationmode sample-hold
attr source receptionStateChanged
attr title "Radio reception state, vector"
vector 156 CampusLikeEnvironment.MiddleDevice1.wlan[4].radio receptionState:vector ETV
attr interpolationmode sample-hold
attr source receptionStateChanged
attr title "Radio reception state, vector"
vector 157 CampusLikeEnvironment.MiddleDevice1.wlan[5].radio receptionState:vector ETV
attr interpolationmode sample-hold
attr source receptionStateChanged
attr title "Radio reception state, vector"
vector 158 CampusLikeEnvironment.MiddleDevice1.wlan[6].radio receptionState:vector ETV
attr interpolationmode sample-hold
attr source receptionStateChanged
attr title "Radio reception state, vector"
vector 159 CampusLikeEnvironment.MiddleDevice1.wlan[7].radio receptionState:vector ETV
attr interpolationmode sample-hold
attr source receptionStateChanged
attr title "Radio reception state, vector"
vector 160 CampusLikeEnvironment.MiddleDevice1.wlan[8].radio receptionState:vector ETV
attr interpolationmode sample-hold
attr source receptionStateChanged
attr title "Radio reception state, vector"
vector 161 CampusLikeEnvironment.MiddleDevice1.wlan[9].radio receptionState:vector ETV
attr interpolationmode sample-hold
attr source receptionStateChanged
attr title "Radio reception state, vector"
vector 162 CampusLikeEnvironment.MiddleDevice1.wlan[10].radio receptionState:vector ETV
attr interpolationmode sample-hold
attr source receptionStateChanged
attr title "Radio reception state, vector"
vector 163 CampusLikeEnvironment.MiddleDevice1.wlan[11].radio receptionState:vector ETV
attr interpolationmode sample-hold
attr source receptionStateChanged
attr title "Radio reception state, vector"
vector 164 CampusLikeEnvironment.MiddleDevice1.wlan[12].radio receptionState:vector ETV
attr interpolationmode sample-hold
attr source receptionStateChanged
attr title "Radio reception state, vector"
vector 165 CampusLikeEnvironment.MiddleDevice1.wlan[13].radio receptionState:vector ETV
attr interpolationmode sample-hold
attr source receptionStateChanged
attr title "Radio reception state, vector"
vector 166 CampusLikeEnvironment.MiddleDevice2.wlan[0].radio receptionState:vector ETV
attr interpolationmode sample-hold
attr source receptionStateChanged
attr title "Radio reception state, vector"
vector 167 CampusLikeEnvironment.MiddleDevice2.wlan[1].radio receptionState:vector ETV
attr interpolationmode sample-hold
attr source receptionStateChanged
attr title "Radio reception state, vector"
vector 168 CampusLikeEnvironment.MiddleDevice2.wlan[2].radio receptionState:vector ETV
attr interpolationmode sample-hold
attr source receptionStateChanged
attr title "Radio reception state, vector"
vector 169 CampusLikeEnvironment.MiddleDevice2.wlan[3].radio receptionState:vector ETV
attr interpolationmode sample-hold
attr source receptionStateChanged
attr title "Radio reception state, vector"
vector 170 CampusLikeEnvironment.MiddleDevice2.wlan[4].radio receptionState:vector ETV
attr interpolationmode sample-hold
attr source receptionStateChanged
attr title "Radio reception state, vector"
vector 171 CampusLikeEnvironment.MiddleDevice2.wlan[5].radio receptionState:vector ETV
attr interpolationmode sample-hold
attr source receptionStateChanged
attr title "Radio reception state, vector"
vector 172 CampusLikeEnvironment.MiddleDevice2.wlan[6].radio receptionState:vector ETV
attr interpolationmode sample-hold
attr source receptionStateChanged
attr title "Radio reception state, vector"
vector 173 CampusLikeEnvironment.MiddleDevice2.wlan[7].radio receptionState:vector ETV
attr interpolationmode sample-hold
attr source receptionStateChanged
attr title "Radio reception state, vector"
vector 174 CampusLikeEnvironment.MiddleDevice2.wlan[8].radio receptionState:vector ETV
attr interpolationmode sample-hold
attr source receptionStateChanged
attr title "Radio reception state, vector"
vector 175 CampusLikeEnvironment.MiddleDevice2.wlan[9].radio receptionState:vector ETV
attr interpolationmode sample-hold
attr source receptionStateChanged
attr title "Radio reception state, vector"
vector 176 CampusLikeEnvironment.MiddleDevice2.wlan[10].radio receptionState:vector ETV
attr interpolationmode sample-hold
attr source receptionStateChanged
attr title "Radio reception state, vector"
vector 177 CampusLikeEnvironment.MiddleDevice2.wlan[11].radio receptionState:vector ETV
attr interpolationmode sample-hold
attr source receptionStateChanged
attr title "Radio reception state, vector"
vector 178 CampusLikeEnvironment.MiddleDevice2.wlan[12].radio receptionState:vector ETV
attr interpolationmode sample-hold
attr source receptionStateChanged
attr title "Radio reception state, vector"
vector 179 CampusLikeEnvironment.MiddleDevice2.wlan[13].radio receptionState:vector ETV
attr interpolationmode sample-hold
attr source receptionStateChanged
attr title "Radio reception state, vector"
vector 180 CampusLikeEnvironment.ServerRadio.wlan[0].radio receptionState:vector ETV
attr interpolationmode sample-hold
attr source receptionStateChanged
attr title "Radio reception state, vector"
vector 181 CampusLikeEnvironment.ServerRadio.wlan[1].radio receptionState:vector ETV
attr interpolationmode sample-hold
attr source receptionStateChanged
attr title "Radio reception state, vector"
vector 182 CampusLikeEnvironment.ServerRadio.wlan[2].radio receptionState:vector ETV
attr interpolationmode sample-hold
attr source receptionStateChanged
attr title "Radio reception state, vector"
vector 183 CampusLikeEnvironment.ServerRadio.wlan[3].radio receptionState:vector ETV
attr interpolationmode sample-hold
attr source receptionStateChanged
attr title "Radio reception state, vector"
vector 184 CampusLikeEnvironment.ServerRadio.wlan[4].radio receptionState:vector ETV
attr interpolationmode sample-hold
attr source receptionStateChanged
attr title "Radio reception state, vector"
vector 185 CampusLikeEnvironment.ServerRadio.wlan[5].radio receptionState:vector ETV
attr interpolationmode sample-hold
attr source receptionStateChanged
attr title "Radio reception state, vector"
vector 186 CampusLikeEnvironment.ServerRadio.wlan[6].radio receptionState:vector ETV
attr interpolationmode sample-hold
attr source receptionStateChanged
attr title "Radio reception state, vector"
vector 187 CampusLikeEnvironment.ServerRadio.wlan[7].radio receptionState:vector ETV
attr interpolationmode sample-hold
attr source receptionStateChanged
attr title "Radio reception state, vector"
vector 188 CampusLikeEnvironment.ServerRadio.wlan[8].radio receptionState:vector ETV
attr interpolationmode sample-hold
attr source receptionStateChanged
attr title "Radio reception state, vector"
vector 189 CampusLikeEnvironment.ServerRadio.wlan[9].radio receptionState:vector ETV
attr interpolationmode sample-hold
attr source receptionStateChanged
attr title "Radio reception state, vector"
vector 190 CampusLikeEnvironment.ServerRadio.wlan[10].radio receptionState:vector ETV
attr interpolationmode sample-hold
attr source receptionStateChanged
attr title "Radio reception state, vector"
vector 191 CampusLikeEnvironment.ServerRadio.wlan[11].radio receptionState:vector ETV
attr interpolationmode sample-hold
attr source receptionStateChanged
attr title "Radio reception state, vector"
vector 192 CampusLikeEnvironment.ServerRadio.wlan[12].radio receptionState:vector ETV
attr interpolationmode sample-hold
attr source receptionStateChanged
attr title "Radio reception state, vector"
vector 193 CampusLikeEnvironment.ServerRadio.wlan[13].radio receptionState:vector ETV
attr interpolationmode sample-hold
attr source receptionStateChanged
attr title "Radio reception state, vector"
vector 194 CampusLikeEnvironment.NoiseServer.wlan[0].radio receptionState:vector ETV
attr interpolationmode sample-hold
attr source receptionStateChanged
attr title "Radio reception state, vector"
vector 195 CampusLikeEnvironment.NoiseDevice0.wlan[0].radio receptionState:vector ETV
attr interpolationmode sample-hold
attr source receptionStateChanged
attr title "Radio reception state, vector"
vector 196 CampusLikeEnvironment.NoiseDevice1.wlan[0].radio receptionState:vector ETV
attr interpolationmode sample-hold
attr source receptionStateChanged
attr title "Radio reception state, vector"
vector 197 CampusLikeEnvironment.NoiseDevice2.wlan[0].radio receptionState:vector ETV
attr interpolationmode sample-hold
attr source receptionStateChanged
attr title "Radio reception state, vector"
vector 198 CampusLikeEnvironment.EndDevice0.wlan[0].mac.dcf.recoveryProcedure contentionWindowChanged:vector ETV
attr interpolationmode sample-hold
attr title "contention window, vector"
vector 199 CampusLikeEnvironment.EndDevice1.wlan[0].mac.dcf.recoveryProcedure contentionWindowChanged:vector ETV
attr interpolationmode sample-hold
attr title "contention window, vector"
vector 200 CampusLikeEnvironment.EndDevice2.wlan[0].mac.dcf.recoveryProcedure contentionWindowChanged:vector ETV
attr interpolationmode sample-hold
attr title "contention window, vector"
vector 201 CampusLikeEnvironment.EndDevice3.wlan[0].mac.dcf.recoveryProcedure contentionWindowChanged:vector ETV
attr interpolationmode sample-hold
attr title "contention window, vector"
vector 202 CampusLikeEnvironment.EndDevice4.wlan[0].mac.dcf.recoveryProcedure contentionWindowChanged:vector ETV
attr interpolationmode sample-hold
attr title "contention window, vector"
vector 203 CampusLikeEnvironment.EndDevice5.wlan[0].mac.dcf.recoveryProcedure contentionWindowChanged:vector ETV
attr interpolationmode sample-hold
attr title "contention window, vector"
vector 204 CampusLikeEnvironment.MiddleDevice0.wlan[0].mac.dcf.recoveryProcedure contentionWindowChanged:vector ETV
attr interpolationmode sample-hold
attr title "contention window, vector"
vector 205 CampusLikeEnvironment.MiddleDevice0.wlan[1].mac.dcf.recoveryProcedure contentionWindowChanged:vector ETV
attr interpolationmode sample-hold
attr title "contention window, vector"
vector 206 CampusLikeEnvironment.MiddleDevice0.wlan[2].mac.dcf.recoveryProcedure contentionWindowChanged:vector ETV
attr interpolationmode sample-hold
attr title "contention window, vector"
vector 207 CampusLikeEnvironment.MiddleDevice0.wlan[3].mac.dcf.recoveryProcedure contentionWindowChanged:vector ETV
attr interpolationmode sample-hold
attr title "contention window, vector"
vector 208 CampusLikeEnvironment.MiddleDevice0.wlan[4].mac.dcf.recoveryProcedure contentionWindowChanged:vector ETV
attr interpolationmode sample-hold
attr title "contention window, vector"
vector 209 CampusLikeEnvironment.MiddleDevice0.wlan[5].mac.dcf.recoveryProcedure contentionWindowChanged:vector ETV
attr interpolationmode sample-hold
attr title "contention window, vector"
vector 210 CampusLikeEnvironment.MiddleDevice0.wlan[6].mac.dcf.recoveryProcedure contentionWindowChanged:vector ETV
attr interpolationmode sample-hold
attr title "contention window, vector"
vector 211 CampusLikeEnvironment.MiddleDevice0.wlan[7].mac.dcf.recoveryProcedure contentionWindowChanged:vector ETV
attr interpolationmode sample-hold
attr title "contention window, vector"
vector 212 CampusLikeEnvironment.MiddleDevice0.wlan[8].mac.dcf.recoveryProcedure contentionWindowChanged:vector ETV
attr interpolationmode sample-hold
attr title "contention window, vector"
vector 213 CampusLikeEnvironment.MiddleDevice0.wlan[9].mac.dcf.recoveryProcedure contentionWindowChanged:vector ETV
attr interpolationmode sample-hold
attr title "contention window, vector"
vector 214 CampusLikeEnvironment.MiddleDevice0.wlan[10].mac.dcf.recoveryProcedure contentionWindowChanged:vector ETV
attr interpolationmode sample-hold
attr title "contention window, vector"
vector 215 CampusLikeEnvironment.MiddleDevice0.wlan[11].mac.dcf.recoveryProcedure contentionWindowChanged:vector ETV
attr interpolationmode sample-hold
attr title "contention window, vector"
vector 216 CampusLikeEnvironment.MiddleDevice0.wlan[12].mac.dcf.recoveryProcedure contentionWindowChanged:vector ETV
attr interpolationmode sample-hold
attr title "contention window, vector"
vector 217 CampusLikeEnvironment.MiddleDevice0.wlan[13].mac.dcf.recoveryProcedure contentionWindowChanged:vector ETV
attr interpolationmode sample-hold
attr title "contention window, vector"
vector 218 CampusLikeEnvironment.MiddleDevice1.wlan[0].mac.dcf.recoveryProcedure contentionWindowChanged:vector ETV
attr interpolationmode sample-hold
attr title "contention window, vector"
vector 219 CampusLikeEnvironment.MiddleDevice1.wlan[1].mac.dcf.recoveryProcedure contentionWindowChanged:vector ETV
attr interpolationmode sample-hold
attr title "contention window, vector"
vector 220 CampusLikeEnvironment.MiddleDevice1.wlan[2].mac.dcf.recoveryProcedure contentionWindowChanged:vector ETV
attr interpolationmode sample-hold
attr title "contention window, vector"
vector 221 CampusLikeEnvironment.MiddleDevice1.wlan[3].mac.dcf.recoveryProcedure contentionWindowChanged:vector ETV
attr interpolationmode sample-hold
attr title "contention window, vector"
vector 222 CampusLikeEnvironment.MiddleDevice1.wlan[4].mac.dcf.recoveryProcedure contentionWindowChanged:vector ETV
attr interpolationmode sample-hold
attr title "contention window, vector"
vector 223 CampusLikeEnvironment.MiddleDevice1.wlan[5].mac.dcf.recoveryProcedure contentionWindowChanged:vector ETV
attr interpolationmode sample-hold
attr title "contention window, vector"
vector 224 CampusLikeEnvironment.MiddleDevice1.wlan[6].mac.dcf.recoveryProcedure contentionWindowChanged:vector ETV
attr interpolationmode sample-hold
attr title "contention window, vector"
vector 225 CampusLikeEnvironment.MiddleDevice1.wlan[7].mac.dcf.recoveryProcedure contentionWindowChanged:vector ETV
attr interpolationmode sample-hold
attr title "contention window, vector"
vector 226 CampusLikeEnvironment.MiddleDevice1.wlan[8].mac.dcf.recoveryProcedure contentionWindowChanged:vector ETV
attr interpolationmode sample-hold
attr title "contention window, vector"
vector 227 CampusLikeEnvironment.MiddleDevice1.wlan[9].mac.dcf.recoveryProcedure contentionWindowChanged:vector ETV
attr interpolationmode sample-hold
attr title "contention window, vector"
vector 228 CampusLikeEnvironment.MiddleDevice1.wlan[10].mac.dcf.recoveryProcedure contentionWindowChanged:vector ETV
attr interpolationmode sample-hold
attr title "contention window, vector"
vector 229 CampusLikeEnvironment.MiddleDevice1.wlan[11].mac.dcf.recoveryProcedure contentionWindowChanged:vector ETV
attr interpolationmode sample-hold
attr title "contention window, vector"
vector 230 CampusLikeEnvironment.MiddleDevice1.wlan[12].mac.dcf.recoveryProcedure contentionWindowChanged:vector ETV
attr interpolationmode sample-hold
attr title "contention window, vector"
vector 231 CampusLikeEnvironment.MiddleDevice1.wlan[13].mac.dcf.recoveryProcedure contentionWindowChanged:vector ETV
attr interpolationmode sample-hold
attr title "contention window, vector"
vector 232 CampusLikeEnvironment.MiddleDevice2.wlan[0].mac.dcf.recoveryProcedure contentionWindowChanged:vector ETV
attr interpolationmode sample-hold
attr title "contention window, vector"
vector 233 CampusLikeEnvironment.MiddleDevice2.wlan[1].mac.dcf.recoveryProcedure contentionWindowChanged:vector ETV
attr interpolationmode sample-hold
attr title "contention window, vector"
vector 234 CampusLikeEnvironment.MiddleDevice2.wlan[2].mac.dcf.recoveryProcedure contentionWindowChanged:vector ETV
attr interpolationmode sample-hold
attr title "contention window, vector"
vector 235 CampusLikeEnvironment.MiddleDevice2.wlan[3].mac.dcf.recoveryProcedure contentionWindowChanged:vector ETV
attr interpolationmode sample-hold
attr title "contention window, vector"
vector 236 CampusLikeEnvironment.MiddleDevice2.wlan[4].mac.dcf.recoveryProcedure contentionWindowChanged:vector ETV
attr interpolationmode sample-hold
attr title "contention window, vector"
vector 237 CampusLikeEnvironment.MiddleDevice2.wlan[5].mac.dcf.recoveryProcedure contentionWindowChanged:vector ETV
attr interpolationmode sample-hold
attr title "contention window, vector"
vector 238 CampusLikeEnvironment.MiddleDevice2.wlan[6].mac.dcf.recoveryProcedure contentionWindowChanged:vector ETV
attr interpolationmode sample-hold
attr title "contention window, vector"
vector 239 CampusLikeEnvironment.MiddleDevice2.wlan[7].mac.dcf.recoveryProcedure contentionWindowChanged:vector ETV
attr interpolationmode sample-hold
attr title "contention window, vector"
vector 240 CampusLikeEnvironment.MiddleDevice2.wlan[8].mac.dcf.recoveryProcedure contentionWindowChanged:vector ETV
attr interpolationmode sample-hold
attr title "contention window, vector"
vector 241 CampusLikeEnvironment.MiddleDevice2.wlan[9].mac.dcf.recoveryProcedure contentionWindowChanged:vector ETV
attr interpolationmode sample-hold
attr title "contention window, vector"
vector 242 CampusLikeEnvironment.MiddleDevice2.wlan[10].mac.dcf.recoveryProcedure contentionWindowChanged:vector ETV
attr interpolationmode sample-hold
attr title "contention window, vector"
vector 243 CampusLikeEnvironment.MiddleDevice2.wlan[11].mac.dcf.recoveryProcedure contentionWindowChanged:vector ETV
attr interpolationmode sample-hold
attr title "contention window, vector"
vector 244 CampusLikeEnvironment.MiddleDevice2.wlan[12].mac.dcf.recoveryProcedure contentionWindowChanged:vector ETV
attr interpolationmode sample-hold
attr title "contention window, vector"
vector 245 CampusLikeEnvironment.MiddleDevice2.wlan[13].mac.dcf.recoveryProcedure contentionWindowChanged:vector ETV
attr interpolationmode sample-hold
attr title "contention window, vector"
vector 246 CampusLikeEnvironment.ServerRadio.wlan[0].mac.dcf.recoveryProcedure contentionWindowChanged:vector ETV
attr interpolationmode sample-hold
attr title "contention window, vector"
vector 247 CampusLikeEnvironment.ServerRadio.wlan[1].mac.dcf.recoveryProcedure contentionWindowChanged:vector ETV
attr interpolationmode sample-hold
attr title "contention window, vector"
vector 248 CampusLikeEnvironment.ServerRadio.wlan[2].mac.dcf.recoveryProcedure contentionWindowChanged:vector ETV
attr interpolationmode sample-hold
attr title "contention window, vector"
vector 249 CampusLikeEnvironment.ServerRadio.wlan[3].mac.dcf.recoveryProcedure contentionWindowChanged:vector ETV
attr interpolationmode sample-hold
attr title "contention window, vector"
vector 250 CampusLikeEnvironment.ServerRadio.wlan[4].mac.dcf.recoveryProcedure contentionWindowChanged:vector ETV
attr interpolationmode sample-hold
attr title "contention window, vector"
vector 251 CampusLikeEnvironment.ServerRadio.wlan[5].mac.dcf.recoveryProcedure contentionWindowChanged:vector ETV
attr interpolationmode sample-hold
attr title "contention window, vector"
vector 252 CampusLikeEnvironment.ServerRadio.wlan[6].mac.dcf.recoveryProcedure contentionWindowChanged:vector ETV
attr interpolationmode sample-hold
attr title "contention window, vector"
vector 253 CampusLikeEnvironment.ServerRadio.wlan[7].mac.dcf.recoveryProcedure contentionWindowChanged:vector ETV
attr interpolationmode sample-hold
attr title "contention window, vector"
vector 254 CampusLikeEnvironment.ServerRadio.wlan[8].mac.dcf.recoveryProcedure contentionWindowChanged:vector ETV
attr interpolationmode sample-hold
attr title "contention window, vector"
vector 255 CampusLikeEnvironment.ServerRadio.wlan[9].mac.dcf.recoveryProcedure contentionWindowChanged:vector ETV
attr interpolationmode sample-hold
attr title "contention window, vector"
vector 256 CampusLikeEnvironment.ServerRadio.wlan[10].mac.dcf.recoveryProcedure contentionWindowChanged:vector ETV
attr interpolationmode sample-hold
attr title "contention window, vector"
vector 257 CampusLikeEnvironment.ServerRadio.wlan[11].mac.dcf.recoveryProcedure contentionWindowChanged:vector ETV
attr interpolationmode sample-hold
attr title "contention window, vector"
vector 258 CampusLikeEnvironment.ServerRadio.wlan[12].mac.dcf.recoveryProcedure contentionWindowChanged:vector ETV
attr interpolationmode sample-hold
attr title "contention window, vector"
vector 259 CampusLikeEnvironment.ServerRadio.wlan[13].mac.dcf.recoveryProcedure contentionWindowChanged:vector ETV
attr interpolationmode sample-hold
attr title "contention window, vector"
vector 260 CampusLikeEnvironment.NoiseServer.wlan[0].mac.dcf.recoveryProcedure contentionWindowChanged:vector ETV
attr interpolationmode sample-hold
attr title "contention window, vector"
vector 261 CampusLikeEnvironment.NoiseDevice0.wlan[0].mac.dcf.recoveryProcedure contentionWindowChanged:vector ETV
attr interpolationmode sample-hold
attr title "contention window, vector"
vector 262 CampusLikeEnvironment.NoiseDevice1.wlan[0].mac.dcf.recoveryProcedure contentionWindowChanged:vector ETV
attr interpolationmode sample-hold
attr title "contention window, vector"
vector 263 CampusLikeEnvironment.NoiseDevice2.wlan[0].mac.dcf.recoveryProcedure contentionWindowChanged:vector ETV
attr interpolationmode sample-hold
attr title "contention window, vector"
vector 264 CampusLikeEnvironment.NoiseDevice2.app[0] packetSent:vector(packetBytes) ETV
attr interpolationmode none
attr source packetSent
attr title "packets sent, vector(packetBytes)"
vector 265 CampusLikeEnvironment.NoiseDevice2.udp packetSent:vector(packetBytes) ETV
attr interpolationmode none
attr source packetSent
attr title "packets sent, vector(packetBytes)"
vector 266 CampusLikeEnvironment.NoiseDevice2.wlan[0].mac packetReceivedFromUpper:vector(packetBytes) ETV
attr interpolationmode none
attr title "packets received from upper layer, vector(packetBytes)"
vector 267 CampusLikeEnvironment.NoiseDevice2.wlan[0].mac.dcf.channelAccess.pendingQueue packetPushed:vector(packetBytes) ETV
attr interpolationmode none
attr title "packet pushed, vector(packetBytes)"
vector 268 CampusLikeEnvironment.NoiseDevice2.wlan[0].mac.dcf.channelAccess.pendingQueue queueLength:vector ETV
attr interpolationmode sample-hold
attr source "count(packetPushed) - count(packetPopped) - count(packetRemoved) - count(packetDropped)"
attr title "queue length, vector"
vector 269 CampusLikeEnvironment.NoiseDevice2.wlan[0].mac.dcf.channelAccess.contention backoffPeriodGenerated:vector ETV
attr interpolationmode none
attr title "backoff periods, vector"
vector 270 CampusLikeEnvironment.NoiseDevice2.wlan[0].mac.dcf.channelAccess.contention backoffActive:vector ETV
attr interpolationmode sample-hold
attr source count(backoffStarted)-count(backoffStopped)
attr title "backoff active, vector"
vector 271 CampusLikeEnvironment.NoiseDevice1.app[0] packetSent:vector(packetBytes) ETV
attr interpolationmode none
attr source packetSent
attr title "packets sent, vector(packetBytes)"
vector 272 CampusLikeEnvironment.NoiseDevice1.udp packetSent:vector(packetBytes) ETV
attr interpolationmode none
attr source packetSent
attr title "packets sent, vector(packetBytes)"
vector 273 CampusLikeEnvironment.NoiseDevice1.wlan[0].mac packetReceivedFromUpper:vector(packetBytes) ETV
attr interpolationmode none
attr title "packets received from upper layer, vector(packetBytes)"
vector 274 CampusLikeEnvironment.NoiseDevice1.wlan[0].mac.dcf.channelAccess.pendingQueue packetPushed:vector(packetBytes) ETV
attr interpolationmode none
attr title "packet pushed, vector(packetBytes)"
vector 275 CampusLikeEnvironment.NoiseDevice1.wlan[0].mac.dcf.channelAccess.pendingQueue queueLength:vector ETV
attr interpolationmode sample-hold
attr source "count(packetPushed) - count(packetPopped) - count(packetRemoved) - count(packetDropped)"
attr title "queue length, vector"
vector 276 CampusLikeEnvironment.NoiseDevice1.wlan[0].mac.dcf.channelAccess.contention backoffPeriodGenerated:vector ETV
attr interpolationmode none
attr title "backoff periods, vector"
vector 277 CampusLikeEnvironment.NoiseDevice1.wlan[0].mac.dcf.channelAccess.contention backoffActive:vector ETV
attr interpolationmode sample-hold
attr source count(backoffStarted)-count(backoffStopped)
attr title "backoff active, vector"
vector 278 CampusLikeEnvironment.NoiseDevice0.app[0] packetSent:vector(packetBytes) ETV
attr interpolationmode none
attr source packetSent
attr title "packets sent, vector(packetBytes)"
vector 279 CampusLikeEnvironment.NoiseDevice0.udp packetSent:vector(packetBytes) ETV
attr interpolationmode none
attr source packetSent
attr title "packets sent, vector(packetBytes)"
vector 280 CampusLikeEnvironment.NoiseDevice0.wlan[0].mac packetReceivedFromUpper:vector(packetBytes) ETV
attr interpolationmode none
attr title "packets received from upper layer, vector(packetBytes)"
vector 281 CampusLikeEnvironment.NoiseDevice0.wlan[0].mac.dcf.channelAccess.pendingQueue packetPushed:vector(packetBytes) ETV
attr interpolationmode none
attr title "packet pushed, vector(packetBytes)"
vector 282 CampusLikeEnvironment.NoiseDevice0.wlan[0].mac.dcf.channelAccess.pendingQueue queueLength:vector ETV
attr interpolationmode sample-hold
attr source "count(packetPushed) - count(packetPopped) - count(packetRemoved) - count(packetDropped)"
attr title "queue length, vector"
vector 283 CampusLikeEnvironment.NoiseDevice0.wlan[0].mac.dcf.channelAccess.contention backoffPeriodGenerated:vector ETV
attr interpolationmode none
attr title "backoff periods, vector"
vector 284 CampusLikeEnvironment.NoiseDevice0.wlan[0].mac.dcf.channelAccess.contention backoffActive:vector ETV
attr interpolationmode sample-hold
attr source count(backoffStarted)-count(backoffStopped)
attr title "backoff active, vector"
vector 285 CampusLikeEnvironment.NoiseDevice0.wlan[0].mac.dcf.channelAccess.pendingQueue packetPopped:vector(packetBytes) ETV
attr interpolationmode none
attr title "packet popped, vector(packetBytes)"
vector 286 CampusLikeEnvironment.NoiseDevice0.wlan[0].mac.dcf.channelAccess.pendingQueue queueingTime:vector ETV
attr interpolationmode none
attr source queueingTime(packetPopped)
attr title "queueing times, vector"
attr unit s
vector 287 CampusLikeEnvironment.NoiseDevice0.wlan[0].mac.dcf.channelAccess.inProgressFrames queueLength:vector ETV
attr interpolationmode sample-hold
attr source "count(packetEnqueued) - count(packetDequeued)"
attr title "queue length, vector"
vector 288 CampusLikeEnvironment.NoiseDevice0.wlan[0].mac.dcf datarateSelected:vector ETV
attr interpolationmode none
attr title "datarates selected, vector"
vector 289 CampusLikeEnvironment.NoiseDevice0.wlan[0].mac packetSentToLower:vector(packetBytes) ETV
attr interpolationmode none
attr title "packets sent to lower layer, vector(packetBytes)"
vector 290 CampusLikeEnvironment.NoiseDevice0.wlan[0].mac.dcf frameSequenceActive:vector ETV
attr interpolationmode sample-hold
attr source count(frameSequenceStarted)-count(frameSequenceFinished)
attr title "frame sequence active, vector"
vector 291 CampusLikeEnvironment.NoiseDevice0.wlan[0].radio transmissionState:vector ETV
attr interpolationmode sample-hold
attr source transmissionStateChanged
attr title "Radio transmission state, vector"
vector 292 CampusLikeEnvironment.NoiseDevice2.wlan[0].mac.dcf.channelAccess.pendingQueue packetPopped:vector(packetBytes) ETV
attr interpolationmode none
attr title "packet popped, vector(packetBytes)"
vector 293 CampusLikeEnvironment.NoiseDevice2.wlan[0].mac.dcf.channelAccess.pendingQueue queueingTime:vector ETV
attr interpolationmode none
attr source queueingTime(packetPopped)
attr title "queueing times, vector"
attr unit s
vector 294 CampusLikeEnvironment.NoiseDevice2.wlan[0].mac.dcf.channelAccess.inProgressFrames queueLength:vector ETV
attr interpolationmode sample-hold
attr source "count(packetEnqueued) - count(packetDequeued)"
attr title "queue length, vector"
vector 295 CampusLikeEnvironment.NoiseDevice2.wlan[0].mac.dcf datarateSelected:vector ETV
attr interpolationmode none
attr title "datarates selected, vector"
vector 296 CampusLikeEnvironment.NoiseDevice2.wlan[0].mac packetSentToLower:vector(packetBytes) ETV
attr interpolationmode none
attr title "packets sent to lower layer, vector(packetBytes)"
vector 297 CampusLikeEnvironment.NoiseDevice2.wlan[0].mac.dcf frameSequenceActive:vector ETV
attr interpolationmode sample-hold
attr source count(frameSequenceStarted)-count(frameSequenceFinished)
attr title "frame sequence active, vector"
vector 298 CampusLikeEnvironment.NoiseDevice2.wlan[0].radio transmissionState:vector ETV
attr interpolationmode sample-hold
attr source transmissionStateChanged
attr title "Radio transmission state, vector"
vector 299 CampusLikeEnvironment.NoiseDevice1.wlan[0].mac.dcf.channelAccess.pendingQueue packetPopped:vector(packetBytes) ETV
attr interpolationmode none
attr title "packet popped, vector(packetBytes)"
vector 300 CampusLikeEnvironment.NoiseDevice1.wlan[0].mac.dcf.channelAccess.pendingQueue queueingTime:vector ETV
attr interpolationmode none
attr source queueingTime(packetPopped)
attr title "queueing times, vector"
attr unit s
vector 301 CampusLikeEnvironment.NoiseDevice1.wlan[0].mac.dcf.channelAccess.inProgressFrames queueLength:vector ETV
attr interpolationmode sample-hold
attr source "count(packetEnqueued) - count(packetDequeued)"
attr title "queue length, vector"
vector 302 CampusLikeEnvironment.NoiseDevice1.wlan[0].mac.dcf datarateSelected:vector ETV
attr interpolationmode none
attr title "datarates selected, vector"
vector 303 CampusLikeEnvironment.NoiseDevice1.wlan[0].mac packetSentToLower:vector(packetBytes) ETV
attr interpolationmode none
attr title "packets sent to lower layer, vector(packetBytes)"
vector 304 CampusLikeEnvironment.NoiseDevice1.wlan[0].mac.dcf frameSequenceActive:vector ETV
attr interpolationmode sample-hold
attr source count(frameSequenceStarted)-count(frameSequenceFinished)
attr title "frame sequence active, vector"
vector 305 CampusLikeEnvironment.NoiseDevice1.wlan[0].radio transmissionState:vector ETV
attr interpolationmode sample-hold
attr source transmissionStateChanged
attr title "Radio transmission state, vector"
vector 306 CampusLikeEnvironment.NoiseDevice0.wlan[0].mac.dcf packetSentToPeer:vector(packetBytes) ETV
attr interpolationmode none
attr title "packets sent, vector(packetBytes)"
vector 307 CampusLikeEnvironment.NoiseDevice0.wlan[0].mac.dcf packetSentToPeerUnicast:vector(packetBytes) ETV
attr interpolationmode none
attr source ieee80211Unicast(packetSentToPeer)
attr title "packets sent: unicast, vector(packetBytes)"
vector 308 CampusLikeEnvironment.NoiseDevice0.wlan[0].mac.dcf packetSentToPeerWithoutRetry:vector(packetBytes) ETV
attr interpolationmode none
attr source ieee80211NotRetry(packetSentToPeer)
attr title "packets sent: without retry, vector(packetBytes)"
vector 309 CampusLikeEnvironment.NoiseDevice0.wlan[0].mac.rx nav:vector ETV
attr interpolationmode linear
attr source navChanged
attr title "network allocation vector, vector"
vector 310 CampusLikeEnvironment.EndDevice0.wlan[0].mac packetReceivedFromLower:vector(packetBytes) ETV
attr interpolationmode none
attr title "packets received from lower layer, vector(packetBytes)"
vector 311 CampusLikeEnvironment.EndDevice0.wlan[0].mac packetDrop:vector(packetBytes) ETV
attr interpolationmode none
attr source packetDropped
attr title "packet drops, vector(packetBytes)"
vector 312 CampusLikeEnvironment.EndDevice0.wlan[0].mac packetDropIncorrectlyReceived:vector(packetBytes) ETV
attr interpolationmode none
attr source packetDropReasonIsIncorrectlyReceived(packetDropped)
attr title "packet drops: incorrectly received, vector(packetBytes)"
vector 313 CampusLikeEnvironment.MiddleDevice2.wlan[0].mac packetReceivedFromLower:vector(packetBytes) ETV
attr interpolationmode none
attr title "packets received from lower layer, vector(packetBytes)"
vector 314 CampusLikeEnvironment.MiddleDevice2.wlan[0].mac packetDrop:vector(packetBytes) ETV
attr interpolationmode none
attr source packetDropped
attr title "packet drops, vector(packetBytes)"
vector 315 CampusLikeEnvironment.MiddleDevice2.wlan[0].mac packetDropIncorrectlyReceived:vector(packetBytes) ETV
attr interpolationmode none
attr source packetDropReasonIsIncorrectlyReceived(packetDropped)
attr title "packet drops: incorrectly received, vector(packetBytes)"
vector 316 CampusLikeEnvironment.MiddleDevice2.wlan[1].mac packetReceivedFromLower:vector(packetBytes) ETV
attr interpolationmode none
attr title "packets received from lower layer, vector(packetBytes)"
vector 317 CampusLikeEnvironment.MiddleDevice2.wlan[1].mac packetDrop:vector(packetBytes) ETV
attr interpolationmode none
attr source packetDropped
attr title "packet drops, vector(packetBytes)"
vector 318 CampusLikeEnvironment.MiddleDevice2.wlan[1].mac packetDropIncorrectlyReceived:vector(packetBytes) ETV
attr interpolationmode none
attr source packetDropReasonIsIncorrectlyReceived(packetDropped)
attr title "packet drops: incorrectly received, vector(packetBytes)"
vector 319 CampusLikeEnvironment.MiddleDevice2.wlan[2].mac packetReceivedFromLower:vector(packetBytes) ETV
attr interpolationmode none
attr title "packets received from lower layer, vector(packetBytes)"
vector 320 CampusLikeEnvironment.MiddleDevice2.wlan[2].mac packetDrop:vector(packetBytes) ETV
attr interpolationmode none
attr source packetDropped
attr title "packet drops, vector(packetBytes)"
vector 321 CampusLikeEnvironment.MiddleDevice2.wlan[2].mac packetDropIncorrectlyReceived:vector(packetBytes) ETV
attr interpolationmode none
attr source packetDropReasonIsIncorrectlyReceived(packetDropped)
attr title "packet drops: incorrectly received, vector(packetBytes)"
vector 322 CampusLikeEnvironment.MiddleDevice2.wlan[3].mac packetReceivedFromLower:vector(packetBytes) ETV
attr interpolationmode none
attr title "packets received from lower layer, vector(packetBytes)"
vector 323 CampusLikeEnvironment.MiddleDevice2.wlan[3].mac packetDrop:vector(packetBytes) ETV
attr interpolationmode none
attr source packetDropped
attr title "packet drops, vector(packetBytes)"
vector 324 CampusLikeEnvironment.MiddleDevice2.wlan[3].mac packetDropIncorrectlyReceived:vector(packetBytes) ETV
attr interpolationmode none
attr source packetDropReasonIsIncorrectlyReceived(packetDropped)
attr title "packet drops: incorrectly received, vector(packetBytes)"
vector 325 CampusLikeEnvironment.MiddleDevice2.wlan[4].mac packetReceivedFromLower:vector(packetBytes) ETV
attr interpolationmode none
attr title "packets received from lower layer, vector(packetBytes)"
vector 326 CampusLikeEnvironment.MiddleDevice2.wlan[4].mac packetDrop:vector(packetBytes) ETV
attr interpolationmode none
attr source packetDropped
attr title "packet drops, vector(packetBytes)"
vector 327 CampusLikeEnvironment.MiddleDevice2.wlan[4].mac packetDropIncorrectlyReceived:vector(packetBytes) ETV
attr interpolationmode none
attr source packetDropReasonIsIncorrectlyReceived(packetDropped)
attr title "packet drops: incorrectly received, vector(packetBytes)"
vector 328 CampusLikeEnvironment.MiddleDevice2.wlan[5].mac packetReceivedFromLower:vector(packetBytes) ETV
attr interpolationmode none
attr title "packets received from lower layer, vector(packetBytes)"
vector 329 CampusLikeEnvironment.MiddleDevice2.wlan[5].mac packetDrop:vector(packetBytes) ETV
attr interpolationmode none
attr source packetDropped
attr title "packet drops, vector(packetBytes)"
vector 330 CampusLikeEnvironment.MiddleDevice2.wlan[5].mac packetDropIncorrectlyReceived:vector(packetBytes) ETV
attr interpolationmode none
attr source packetDropReasonIsIncorrectlyReceived(packetDropped)
attr title "packet drops: incorrectly received, vector(packetBytes)"
vector 331 CampusLikeEnvironment.MiddleDevice2.wlan[6].mac packetReceivedFromLower:vector(packetBytes) ETV
attr interpolationmode none
attr title "packets received from lower layer, vector(packetBytes)"
vector 332 CampusLikeEnvironment.MiddleDevice2.wlan[6].mac packetDrop:vector(packetBytes) ETV
attr interpolationmode none
attr source packetDropped
attr title "packet drops, vector(packetBytes)"
vector 333 CampusLikeEnvironment.MiddleDevice2.wlan[6].mac packetDropIncorrectlyReceived:vector(packetBytes) ETV
attr interpolationmode none
attr source packetDropReasonIsIncorrectlyReceived(packetDropped)
attr title "packet drops: incorrectly received, vector(packetBytes)"
vector 334 CampusLikeEnvironment.MiddleDevice2.wlan[7].mac packetReceivedFromLower:vector(packetBytes) ETV
attr interpolationmode none
attr title "packets received from lower layer, vector(packetBytes)"
vector 335 CampusLikeEnvironment.MiddleDevice2.wlan[7].mac packetDrop:vector(packetBytes) ETV
attr interpolationmode none
attr source packetDropped
attr title "packet drops, vector(packetBytes)"
vector 336 CampusLikeEnvironment.MiddleDevice2.wlan[7].mac packetDropIncorrectlyReceived:vector(packetBytes) ETV
attr interpolationmode none
attr source packetDropReasonIsIncorrectlyReceived(packetDropped)
attr title "packet drops: incorrectly received, vector(packetBytes)"
vector 337 CampusLikeEnvironment.MiddleDevice2.wlan[8].mac packetReceivedFromLower:vector(packetBytes) ETV
attr interpolationmode none
attr title "packets received from lower layer, vector(packetBytes)"
vector 338 CampusLikeEnvironment.MiddleDevice2.wlan[8].mac packetDrop:vector(packetBytes) ETV
attr interpolationmode none
attr source packetDropped
attr title "packet drops, vector(packetBytes)"
vector 339 CampusLikeEnvironment.MiddleDevice2.wlan[8].mac packetDropIncorrectlyReceived:vector(packetBytes) ETV
attr interpolationmode none
attr source packetDropReasonIsIncorrectlyReceived(packetDropped)
attr title "packet drops: incorrectly received, vector(packetBytes)"
vector 340 CampusLikeEnvironment.MiddleDevice2.wlan[9].mac packetReceivedFromLower:vector(packetBytes) ETV
attr interpolationmode none
attr title "packets received from lower layer, vector(packetBytes)"
vector 341 CampusLikeEnvironment.MiddleDevice2.wlan[9].mac packetDrop:vector(packetBytes) ETV
attr interpolationmode none
attr source packetDropped
attr title "packet drops, vector(packetBytes)"
vector 342 CampusLikeEnvironment.MiddleDevice2.wlan[9].mac packetDropIncorrectlyReceived:vector(packetBytes) ETV
attr interpolationmode none
attr source packetDropReasonIsIncorrectlyReceived(packetDropped)
attr title "packet drops: incorrectly received, vector(packetBytes)"
vector 343 CampusLikeEnvironment.MiddleDevice2.wlan[10].mac packetReceivedFromLower:vector(packetBytes) ETV
attr interpolationmode none
attr title "packets received from lower layer, vector(packetBytes)"
vector 344 CampusLikeEnvironment.MiddleDevice2.wlan[10].mac packetDrop:vector(packetBytes) ETV
attr interpolationmode none
attr source packetDropped
attr title "packet drops, vector(packetBytes)"
vector 345 CampusLikeEnvironment.MiddleDevice2.wlan[10].mac packetDropIncorrectlyReceived:vector(packetBytes) ETV
attr interpolationmode none
attr source packetDropReasonIsIncorrectlyReceived(packetDropped)
attr title "packet drops: incorrectly received, vector(packetBytes)"
vector 346 CampusLikeEnvironment.MiddleDevice2.wlan[11].mac packetReceivedFromLower:vector(packetBytes) ETV
attr interpolationmode none
attr title "packets received from lower layer, vector(packetBytes)"
vector 347 CampusLikeEnvironment.MiddleDevice2.wlan[11].mac packetDrop:vector(packetBytes) ETV
attr interpolationmode none
attr source packetDropped
attr title "packet drops, vector(packetBytes)"
vector 348 CampusLikeEnvironment.MiddleDevice2.wlan[11].mac packetDropIncorrectlyReceived:vector(packetBytes) ETV
attr interpolationmode none
attr source packetDropReasonIsIncorrectlyReceived(packetDropped)
attr title "packet drops: incorrectly received, vector(packetBytes)"
vector 349 CampusLikeEnvironment.MiddleDevice2.wlan[12].mac packetReceivedFromLower:vector(packetBytes) ETV
attr interpolationmode none
attr title "packets received from lower layer, vector(packetBytes)"
vector 350 CampusLikeEnvironment.MiddleDevice2.wlan[12].mac packetDrop:vector(packetBytes) ETV
attr interpolationmode none
attr source packetDropped
attr title "packet drops, vector(packetBytes)"
vector 351 CampusLikeEnvironment.MiddleDevice2.wlan[12].mac packetDropIncorrectlyReceived:vector(packetBytes) ETV
attr interpolationmode none
attr source packetDropReasonIsIncorrectlyReceived(packetDropped)
attr title "packet drops: incorrectly received, vector(packetBytes)"
vector 352 CampusLikeEnvironment.MiddleDevice2.wlan[13].mac packetReceivedFromLower:vector(packetBytes) ETV
attr interpolationmode none
attr title "packets received from lower layer, vector(packetBytes)"
vector 353 CampusLikeEnvironment.MiddleDevice2.wlan[13].mac packetDrop:vector(packetBytes) ETV
attr interpolationmode none
attr source packetDropped
attr title "packet drops, vector(packetBytes)"
vector 354 CampusLikeEnvironment.MiddleDevice2.wlan[13].mac packetDropIncorrectlyReceived:vector(packetBytes) ETV
attr interpolationmode none
attr source packetDropReasonIsIncorrectlyReceived(packetDropped)
attr title "packet drops: incorrectly received, vector(packetBytes)"
vector 355 CampusLikeEnvironment.EndDevice5.wlan[0].mac packetReceivedFromLower:vector(packetBytes) ETV
attr interpolationmode none
attr title "packets received from lower layer, vector(packetBytes)"
vector 356 CampusLikeEnvironment.EndDevice5.wlan[0].mac packetDrop:vector(packetBytes) ETV
attr interpolationmode none
attr source packetDropped
attr title "packet drops, vector(packetBytes)"
vector 357 CampusLikeEnvironment.EndDevice5.wlan[0].mac packetDropIncorrectlyReceived:vector(packetBytes) ETV
attr interpolationmode none
attr source packetDropReasonIsIncorrectlyReceived(packetDropped)
attr title "packet drops: incorrectly received, vector(packetBytes)"
vector 358 CampusLikeEnvironment.NoiseDevice2.wlan[0].mac.dcf packetSentToPeer:vector(packetBytes) ETV
attr interpolationmode none
attr title "packets sent, vector(packetBytes)"
vector 359 CampusLikeEnvironment.NoiseDevice2.wlan[0].mac.dcf packetSentToPeerUnicast:vector(packetBytes) ETV
attr interpolationmode none
attr source ieee80211Unicast(packetSentToPeer)
attr title "packets sent: unicast, vector(packetBytes)"
vector 360 CampusLikeEnvironment.NoiseDevice2.wlan[0].mac.dcf packetSentToPeerWithoutRetry:vector(packetBytes) ETV
attr interpolationmode none
attr source ieee80211NotRetry(packetSentToPeer)
attr title "packets sent: without retry, vector(packetBytes)"
vector 361 CampusLikeEnvironment.NoiseDevice2.wlan[0].mac.rx nav:vector ETV
attr interpolationmode linear
attr source navChanged
attr title "network allocation vector, vector"
vector 362 CampusLikeEnvironment.EndDevice2.wlan[0].mac packetReceivedFromLower:vector(packetBytes) ETV
attr interpolationmode none
attr title "packets received from lower layer, vector(packetBytes)"
vector 363 CampusLikeEnvironment.EndDevice2.wlan[0].mac packetDrop:vector(packetBytes) ETV
attr interpolationmode none
attr source packetDropped
attr title "packet drops, vector(packetBytes)"
vector 364 CampusLikeEnvironment.EndDevice2.wlan[0].mac packetDropIncorrectlyReceived:vector(packetBytes) ETV
attr interpolationmode none
attr source packetDropReasonIsIncorrectlyReceived(packetDropped)
attr title "packet drops: incorrectly received, vector(packetBytes)"
vector 365 CampusLikeEnvironment.EndDevice4.wlan[0].mac packetReceivedFromLower:vector(packetBytes) ETV
attr interpolationmode none
attr title "packets received from lower layer, vector(packetBytes)"
vector 366 CampusLikeEnvironment.EndDevice4.wlan[0].mac packetDrop:vector(packetBytes) ETV
attr interpolationmode none
attr source packetDropped
attr title "packet drops, vector(packetBytes)"
vector 367 CampusLikeEnvironment.EndDevice4.wlan[0].mac packetDropIncorrectlyReceived:vector(packetBytes) ETV
attr interpolationmode none
attr source packetDropReasonIsIncorrectlyReceived(packetDropped)
attr title "packet drops: incorrectly received, vector(packetBytes)"
vector 368 CampusLikeEnvironment.MiddleDevice0.wlan[0].mac packetReceivedFromLower:vector(packetBytes) ETV
attr interpolationmode none
attr title "packets received from lower layer, vector(packetBytes)"
vector 369 CampusLikeEnvironment.MiddleDevice0.wlan[0].mac packetDrop:vector(packetBytes) ETV
attr interpolationmode none
attr source packetDropped
attr title "packet drops, vector(packetBytes)"
vector 370 CampusLikeEnvironment.MiddleDevice0.wlan[0].mac packetDropIncorrectlyReceived:vector(packetBytes) ETV
attr interpolationmode none
attr source packetDropReasonIsIncorrectlyReceived(packetDropped)
attr title "packet drops: incorrectly received, vector(packetBytes)"
vector 371 CampusLikeEnvironment.MiddleDevice0.wlan[1].mac packetReceivedFromLower:vector(packetBytes) ETV
attr interpolationmode none
attr title "packets received from lower layer, vector(packetBytes)"
vector 372 CampusLikeEnvironment.MiddleDevice0.wlan[1].mac packetDrop:vector(packetBytes) ETV
attr interpolationmode none
attr source packetDropped
attr title "packet drops, vector(packetBytes)"
vector 373 CampusLikeEnvironment.MiddleDevice0.wlan[1].mac packetDropIncorrectlyReceived:vector(packetBytes) ETV
attr interpolationmode none
attr source packetDropReasonIsIncorrectlyReceived(packetDropped)
attr title "packet drops: incorrectly received, vector(packetBytes)"
vector 374 CampusLikeEnvironment.MiddleDevice0.wlan[2].mac packetReceivedFromLower:vector(packetBytes) ETV
attr interpolationmode none
attr title "packets received from lower layer, vector(packetBytes)"
vector 375 CampusLikeEnvironment.MiddleDevice0.wlan[2].mac packetDrop:vector(packetBytes) ETV
attr interpolationmode none
attr source packetDropped
attr title "packet drops, vector(packetBytes)"
vector 376 CampusLikeEnvironment.MiddleDevice0.wlan[2].mac packetDropIncorrectlyReceived:vector(packetBytes) ETV
attr interpolationmode none
attr source packetDropReasonIsIncorrectlyReceived(packetDropped)
attr title "packet drops: incorrectly received, vector(packetBytes)"
vector 377 CampusLikeEnvironment.MiddleDevice0.wlan[3].mac packetReceivedFromLower:vector(packetBytes) ETV
attr interpolationmode none
attr title "packets received from lower layer, vector(packetBytes)"
vector 378 CampusLikeEnvironment.MiddleDevice0.wlan[3].mac packetDrop:vector(packetBytes) ETV
attr interpolationmode none
attr source packetDropped
attr title "packet drops, vector(packetBytes)"
vector 379 CampusLikeEnvironment.MiddleDevice0.wlan[3].mac packetDropIncorrectlyReceived:vector(packetBytes) ETV
attr interpolationmode none
attr source packetDropReasonIsIncorrectlyReceived(packetDropped)
attr title "packet drops: incorrectly received, vector(packetBytes)"
vector 380 CampusLikeEnvironment.MiddleDevice0.wlan[4].mac packetReceivedFromLower:vector(packetBytes) ETV
attr interpolationmode none
attr title "packets received from lower layer, vector(packetBytes)"
vector 381 CampusLikeEnvironment.MiddleDevice0.wlan[4].mac packetDrop:vector(packetBytes) ETV
attr interpolationmode none
attr source packetDropped
attr title "packet drops, vector(packetBytes)"
vector 382 CampusLikeEnvironment.MiddleDevice0.wlan[4].mac packetDropIncorrectlyReceived:vector(packetBytes) ETV
attr interpolationmode none
attr source packetDropReasonIsIncorrectlyReceived(packetDropped)
attr title "packet drops: incorrectly received, vector(packetBytes)"
vector 383 CampusLikeEnvironment.MiddleDevice0.wlan[5].mac packetReceivedFromLower:vector(packetBytes) ETV
attr interpolationmode none
attr title "packets received from lower layer, vector(packetBytes)"
vector 384 CampusLikeEnvironment.MiddleDevice0.wlan[5].mac packetDrop:vector(packetBytes) ETV
attr interpolationmode none
attr source packetDropped
attr title "packet drops, vector(packetBytes)"
vector 385 CampusLikeEnvironment.MiddleDevice0.wlan[5].mac packetDropIncorrectlyReceived:vector(packetBytes) ETV
attr interpolationmode none
attr source packetDropReasonIsIncorrectlyReceived(packetDropped)
attr title "packet drops: incorrectly received, vector(packetBytes)"
vector 386 CampusLikeEnvironment.MiddleDevice0.wlan[6].mac packetReceivedFromLower:vector(packetBytes) ETV
attr interpolationmode none
attr title "packets received from lower layer, vector(packetBytes)"
vector 387 CampusLikeEnvironment.MiddleDevice0.wlan[6].mac packetDrop:vector(packetBytes) ETV
attr interpolationmode none
attr source packetDropped
attr title "packet drops, vector(packetBytes)"
vector 388 CampusLikeEnvironment.MiddleDevice0.wlan[6].mac packetDropIncorrectlyReceived:vector(packetBytes) ETV
attr interpolationmode none
attr source packetDropReasonIsIncorrectlyReceived(packetDropped)
attr title "packet drops: incorrectly received, vector(packetBytes)"
vector 389 CampusLikeEnvironment.MiddleDevice0.wlan[7].mac packetReceivedFromLower:vector(packetBytes) ETV
attr interpolationmode none
[...]
770	78521418 402 1720418 1731083 9.924861063487 9.992080450654 13 14 1064 8582 9057748
771	78521820 402 1720418 1731083 9.924861063487 9.992080450654 13 14 1064 8582 9057748
772	78522222 286 1722330 1734084 9.948515472027 9.99898912294 9 1064 1064 9576 10188864
773	78522508 60 1727060 1727647 9.97205343091 9.97263571913 2 14 1064 1078 1132292
774	78522568 60 1727060 1727647 9.97205343091 9.97263571913 2 14 1064 1078 1132292
776	78522628 70 1727060 1727337 9.97205343091 9.97220743091 2 24000000 24000000 48000000 1.152e+15
777	78522698 31 1727060 1727060 9.97205343091 9.97205343091 1 1036 1036 1036 1073296
778	78522729 363 1720466 1730899 9.924861647906 9.99154660964 12 0 4.4e-05 0.000176 7.744e-09
779	78523092 363 1720467 1730900 9.924861647906 9.99154660964 12 0 4.4e-05 0.000176 7.744e-09
780	78523455 363 1720468 1730901 9.924861647906 9.99154660964 12 0 4.4e-05 0.000176 7.744e-09
781	78523818 363 1720469 1730902 9.924861647906 9.99154660964 12 0 4.4e-05 0.000176 7.744e-09
782	78524181 363 1720470 1730903 9.924861647906 9.99154660964 12 0 4.4e-05 0.000176 7.744e-09
783	78524544 363 1720471 1730904 9.924861647906 9.99154660964 12 0 4.4e-05 0.000176 7.744e-09
784	78524907 363 1720472 1730905 9.924861647906 9.99154660964 12 0 4.4e-05 0.000176 7.744e-09
785	78525270 363 1720473 1730906 9.924861647906 9.99154660964 12 0 4.4e-05 0.000176 7.744e-09
786	78525633 363 1720474 1730907 9.924861647906 9.99154660964 12 0 4.4e-05 0.000176 7.744e-09
787	78525996 363 1720475 1730908 9.924861647906 9.99154660964 12 0 4.4e-05 0.000176 7.744e-09
788	78526359 363 1720476 1730909 9.924861647906 9.99154660964 12 0 4.4e-05 0.000176 7.744e-09
789	78526722 363 1720477 1730910 9.924861647906 9.99154660964 12 0 4.4e-05 0.000176 7.744e-09
790	78527085 363 1720478 1730911 9.924861647906 9.99154660964 12 0 4.4e-05 0.000176 7.744e-09
791	78527448 31 1727077 1727077 9.97205343091 9.97205343091 1 1036 1036 1036 1073296
792	78527479 31 1727077 1727077 9.97205343091 9.97205343091 1 1064 1064 1064 1132096
793	78527510 56 1727077 1727337 9.97205343091 9.97220743091 2 0 1 1 1
794	78527566 28 1727077 1727077 9.97205343091 9.97205343091 1 3 3 3 9
795	78527594 112 1727077 1727336 9.97205343091 9.97220743091 4 0 1 2 2
796	78527706 240 1721055 1731327 9.92552620796 9.992127169694 8 14 1064 1162 1133468
797	78527946 240 1721055 1731327 9.92552620796 9.992127169694 8 14 1064 1162 1133468
798	78528186 240 1721055 1731327 9.92552620796 9.992127169694 8 14 1064 1162 1133468
799	78528426 60 1727142 1727337 9.97206343091 9.97220743091 2 14 1064 1078 1132292
800	78528486 224 1727143 1727419 9.97206343091 9.97258943091 8 0 2 8 12
801	78528710 60 1727225 1727405 9.97209743091 9.97258943091 2 14 1064 1078 1132292
802	78528770 60 1727225 1727405 9.97209743091 9.97258943091 2 14 1064 1078 1132292
803	78528830 60 1727225 1727405 9.97209743091 9.97258943091 2 14 1064 1078 1132292
804	78528890 30 1727298 1727298 9.972099592779 9.972099592779 1 14 14 14 196
805	78528920 30 1727298 1727298 9.972099592779 9.972099592779 1 14 14 14 196
806	78528950 30 1727298 1727298 9.972099592779 9.972099592779 1 14 14 14 196
807	78528980 42 1727298 1727298 9.972099592779 9.972099592779 1 0.000430323738 0.000430323738 0.000430323738 1.8517851948629e-07
808	78529022 528 1720675 1731119 9.924907896997 9.992080858731 17 14 1064 10738 11322332
809	78529550 404 1720847 1731119 9.925479896997 9.992080858731 13 14 1064 8582 9057748
810	78529954 404 1720847 1731119 9.925479896997 9.992080858731 13 14 1064 8582 9057748
811	78530358 468 1720847 1731119 9.925479896997 9.992080858731 15 14 1064 10710 11321940
812	78530826 404 1720847 1731119 9.925479896997 9.992080858731 13 14 1064 8582 9057748
813	78531230 31 1727337 1727337 9.97220743091 9.97220743091 1 1064 1064 1064 1132096
814	78531261 35 1727337 1727337 9.97220743091 9.97220743091 1 0.000154 0.000154 0.000154 2.3716e-08
815	78531296 56 1727337 1727647 9.97220743091 9.97263571913 2 0 1 1 1
816	78531352 56 1727337 1727647 9.97220743091 9.97263571913 2 0 1 1 1
817	78531408 273 1720465 1730898 9.924861647906 9.99154660964 9 0 4.4e-05 0.000132 5.808e-09
818	78531681 1113 1720415 1731281 9.924859054683 9.992124858731 36 0 4.4e-05 0.000528 2.3232e-08
819	78532794 60 1727060 1727647 9.97205343091 9.97263571913 2 14 1064 1078 1132292
820	78532854 40 1727647 1727647 9.97263571913 9.97263571913 1 0.00042828822 0.00042828822 0.00042828822 1.8343079939077e-07
821	78532894 369 1720433 1731355 9.92486147584 9.992127218972 12 14 1064 6468 6793752
822	78533263 369 1720433 1731355 9.92486147584 9.992127218972 12 14 1064 6468 6793752
823	78533632 64 1725242 1730705 9.963989517195 9.991502437574 2 1064 1064 2128 2264192
824	78533696 462 1720433 1730984 9.92486147584 9.991696437574 13 24000000 24000000 312000000 7.488e+15
825	78534158 189 1720433 1730705 9.92486147584 9.991502437574 6 1036 1036 6216 6439776
826	78534347 1191 1720434 1731224 9.92486147584 9.992122437574 39 0 4.4e-05 0.000572 2.5168e-08
827	78535538 1191 1720435 1731225 9.92486147584 9.992122437574 39 0 4.4e-05 0.000572 2.5168e-08
828	78536729 1191 1720436 1731226 9.92486147584 9.992122437574 39 0 4.4e-05 0.000572 2.5168e-08
829	78537920 1191 1720437 1731227 9.92486147584 9.992122437574 39 0 4.4e-05 0.000572 2.5168e-08
830	78539111 1191 1720438 1731228 9.92486147584 9.992122437574 39 0 4.4e-05 0.000572 2.5168e-08
831	78540302 1191 1720439 1731229 9.92486147584 9.992122437574 39 0 4.4e-05 0.000572 2.5168e-08
832	78541493 1191 1720440 1731230 9.92486147584 9.992122437574 39 0 4.4e-05 0.000572 2.5168e-08
833	78542684 1191 1720441 1731231 9.92486147584 9.992122437574 39 0 4.4e-05 0.000572 2.5168e-08
834	78543875 1191 1720442 1731232 9.92486147584 9.992122437574 39 0 4.4e-05 0.000572 2.5168e-08
835	78545066 1191 1720443 1731233 9.92486147584 9.992122437574 39 0 4.4e-05 0.000572 2.5168e-08
836	78546257 1191 1720444 1731234 9.92486147584 9.992122437574 39 0 4.4e-05 0.000572 2.5168e-08
837	78547448 1191 1720445 1731235 9.92486147584 9.992122437574 39 0 4.4e-05 0.000572 2.5168e-08
838	78548639 1191 1720446 1731236 9.92486147584 9.992122437574 39 0 4.4e-05 0.000572 2.5168e-08
839	78549830 189 1720450 1730722 9.92486147584 9.991502437574 6 1036 1036 6216 6439776
840	78550019 189 1720450 1730722 9.92486147584 9.991502437574 6 1064 1064 6384 6792576
841	78550208 342 1720450 1730984 9.92486147584 9.991696437574 12 0 1 6 6
842	78550550 204 1720450 1730722 9.92486147584 9.991502437574 7 2 41 113 3013
843	78550754 742 1720450 1730983 9.92486147584 9.991696437574 26 0 1 13 13
844	78551496 831 1720809 1731237 9.925479328257 9.992124289991 27 0 4.4e-05 0.000396 1.7424e-08
845	78552327 280 1720641 1731081 9.924907328257 9.992080289991 9 14 1064 6426 6793164
846	78552607 280 1720641 1731081 9.924907328257 9.992080289991 9 14 1064 6426 6793164
847	78552887 280 1720641 1731081 9.924907328257 9.992080289991 9 14 1064 6426 6793164
848	78553167 398 1720515 1730984 9.92487147584 9.991696437574 13 14 1064 7532 7925848
849	78553565 1484 1720516 1731066 9.92487147584 9.992078437574 52 0 2 52 78
850	78555049 398 1720598 1731052 9.92490547584 9.992078437574 13 14 1064 7532 7925848
851	78555447 398 1720598 1731052 9.92490547584 9.992078437574 13 14 1064 7532 7925848
852	78555845 366 1720598 1731052 9.92490547584 9.992078437574 12 14 1064 6468 6793752
853	78556211 561 1720645 1731085 9.924907560875 9.992080522609 18 14 1064 12852 13586328
858	78556772 189 1720712 1730984 9.92509547584 9.991696437574 6 1064 1064 6384 6792576
859	78556961 213 1720712 1730984 9.92509547584 9.991696437574 6 0.000134 0.000594 0.002004 8.56536e-07
860	78557174 345 1720712 1731355 9.92509547584 9.992127218972 12 0 1 6 6
861	78557519 403 1720712 1731355 9.92509547584 9.992127218972 14 0 1 7 7
862	78557922 642 1720780 1731223 9.92547747584 9.992122437574 21 0 4.4e-05 0.000308 1.3552e-08
863	78558564 530 1720645 1731085 9.924907560875 9.992080522609 17 14 1064 11788 12454232
864	78559094 530 1720645 1731085 9.924907560875 9.992080522609 17 14 1064 11788 12454232
865	78559624 561 1720645 1731085 9.924907560875 9.992080522609 18 14 1064 12852 13586328
866	78560185 530 1720645 1731085 9.924907560875 9.992080522609 17 14 1064 11788 12454232
867	78560715 305 1720433 1731355 9.92486147584 9.992127218972 10 14 1064 4340 4529560
868	78561020 252 1721083 1731355 9.925526257238 9.992127218972 6 0.000430781398 0.001726781398 0.003880688388 3.909637060793e-06
869	78561272 32 1732123 1732123 9.995953231344 9.995953231344 1 1000 1000 1000 1000000
870	78561304 32 1732124 1732124 9.995953231344 9.995953231344 1 1008 1008 1008 1016064
871	78561336 32 1732127 1732127 9.995953231344 9.995953231344 1 1036 1036 1036 1073296
872	78561368 32 1732127 1732127 9.995953231344 9.995953231344 1 1064 1064 1064 1132096
873	78561400 58 1732127 1732129 9.995953231344 9.995953231344 2 0 1 1 1
874	78561458 30 1732127 1732127 9.995953231344 9.995953231344 1 21 21 21 441
875	78561488 58 1732127 1732128 9.995953231344 9.995953231344 2 0 1 1 1
876	78561546 32 1732129 1732129 9.995953231344 9.995953231344 1 1064 1064 1064 1132096
877	78561578 29 1732129 1732129 9.995953231344 9.995953231344 1 0 0 0 0
878	78561607 58 1732129 1732395 9.995953231344 9.996383088184 2 0 1 1 1
879	78561665 36 1732129 1732129 9.995953231344 9.995953231344 1 24000000 24000000 24000000 5.76e+14
880	78561701 32 1732129 1732129 9.995953231344 9.995953231344 1 1064 1064 1064 1132096
881	78561733 58 1732129 1732395 9.995953231344 9.996383088184 2 0 1 1 1
882	78561791 116 1732130 1732198 9.995953231344 9.996335231344 4 0 2 4 6
883	78561907 32 1732197 1732197 9.996335231344 9.996335231344 1 1064 1064 1064 1132096
884	78561939 32 1732197 1732197 9.996335231344 9.996335231344 1 1064 1064 1064 1132096
885	78561971 32 1732197 1732197 9.996335231344 9.996335231344 1 1064 1064 1064 1132096
886	78562003 30 1732395 1732395 9.996383088184 9.996383088184 1 14 14 14 196
887	78562033 30 1732395 1732395 9.996383088184 9.996383088184 1 14 14 14 196
888	78562063 30 1732395 1732395 9.996383088184 9.996383088184 1 14 14 14 196
889	78562093 41 1732395 1732395 9.996383088184 9.996383088184 1 0.00042985684 0.00042985684 0.00042985684 1.8477690289479e-07
890	78562134 288 1720059 1733330 9.921056711494 9.997891940731 9 1064 1064 9576 10188864
891	78562422 288 1720059 1733330 9.921056711494 9.997891940731 9 1064 1064 9576 10188864
892	78562710 256 1720059 1733330 9.921056711494 9.997891940731 8 1064 1064 8512 9056768
893	78562966 324 1720059 1733330 9.921056711494 9.997891940731 9 24000000 24000000 216000000 5.184e+15
894	78563290 288 1720059 1733330 9.921056711494 9.997891940731 9 1036 1036 9324 9659664
895	78563578 288 1720075 1733346 9.921056711494 9.997891940731 9 1008 1008 9072 9144576
896	78563866 288 1720075 1733346 9.921056711494 9.997891940731 9 1433 1441 12933 18584781
897	78564154 288 1720076 1733347 9.921056711494 9.997891940731 9 1000 1000 9000 9000000
898	78564442 378 1720076 1733347 9.921056711494 9.997891940731 9 0.000902269841 0.003254811856 0.014112498477 2.8342567584029e-05
899	78564820 279 1720076 1733347 9.921056711494 9.997891940731 9 219 263 2183 531693
900	78565099 837 1720078 1733513 9.921056762641 9.997935991878 27 0 4.4e-05 0.000396 1.7424e-08
901	78565936 270 1720117 1733388 9.921066711494 9.997901940731 9 14 14 126 1764
902	78566206 1044 1720118 1733499 9.921066711494 9.997935940731 36 0 2 36 54
903	78567250 270 1720214 1733485 9.921100711494 9.997935940731 9 14 14 126 1764
904	78567520 270 1720214 1733485 9.921100711494 9.997935940731 9 14 14 126 1764
905	78567790 270 1720214 1733485 9.921100711494 9.997935940731 9 14 14 126 1764
906	78568060 45 1722334 1734353 9.9 10 2 560000 720000 1280000 832000000000
928	78568105 22 1734353 1734353 10 10 1 800000 800000 800000 640000000000
929	78568127 32 1732863 1732863 9.996943030128 9.996943030128 1 1000 1000 1000 1000000
930	78568159 32 1732864 1732864 9.996943030128 9.996943030128 1 1008 1008 1008 1016064
931	78568191 32 1732867 1732867 9.996943030128 9.996943030128 1 1036 1036 1036 1073296
932	78568223 32 1732867 1732867 9.996943030128 9.996943030128 1 1064 1064 1064 1132096
933	78568255 58 1732867 1732869 9.996943030128 9.996949379537 2 0 1 1 1
934	78568313 29 1732867 1732867 9.996943030128 9.996943030128 1 0 0 0 0
935	78568342 58 1732867 1732868 9.996943030128 9.996949379537 2 0 1 1 1
936	78568400 32 1732869 1732869 9.996949379537 9.996949379537 1 1064 1064 1064 1132096
937	78568432 40 1732869 1732869 9.996949379537 9.996949379537 1 6.349409e-06 6.349409e-06 6.349409e-06 4.0314994649281e-11
938	78568472 87 1719875 1733139 9.920144589846 9.997379819083 3 0 1 1 1
939	78568559 36 1732869 1732869 9.996949379537 9.996949379537 1 24000000 24000000 24000000 5.76e+14
940	78568595 32 1732869 1732869 9.996949379537 9.996949379537 1 1064 1064 1064 1132096
941	78568627 87 1719875 1733139 9.920144589846 9.997379819083 3 0 1 1 1
942	78568714 116 1732870 1732938 9.996949379537 9.997331379537 4 0 2 4 6
943	78568830 32 1732937 1732937 9.997331379537 9.997331379537 1 1064 1064 1064 1132096
944	78568862 32 1732937 1732937 9.997331379537 9.997331379537 1 1064 1064 1064 1132096
945	78568894 32 1732937 1732937 9.997331379537 9.997331379537 1 1064 1064 1064 1132096
946	78568926 60 1719875 1733139 9.920144589846 9.997379819083 2 14 14 28 392
947	78568986 60 1719875 1733139 9.920144589846 9.997379819083 2 14 14 28 392
948	78569046 60 1719875 1733139 9.920144589846 9.997379819083 2 14 14 28 392
949	78569106 84 1719875 1733139 9.920144589846 9.997379819083 2 0.000430439546 0.000430439546 0.000860879092 3.7055640552137e-07
950	78569190 96 1721118 1728485 9.943266106883 9.983455429566 3 1000 1000 3000 3000000
951	78569286 96 1721119 1728486 9.943266106883 9.983455429566 3 1008 1008 3024 3048192
952	78569382 96 1721122 1728489 9.943266106883 9.983455429566 3 1036 1036 3108 3219888
953	78569478 96 1721122 1728489 9.943266106883 9.983455429566 3 1064 1064 3192 3396288
954	78569574 174 1721122 1728491 9.943266106883 9.983455429566 6 0 1 3 3
955	78569748 88 1721122 1728489 9.943266106883 9.983455429566 3 3 11 21 179
956	78569836 174 1721122 1728490 9.943266106883 9.983455429566 6 0 1 3 3
957	78570010 96 1721124 1728491 9.943266106883 9.983455429566 3 1064 1064 3192 3396288
958	78570106 87 1721124 1728491 9.943266106883 9.983455429566 3 0 0 0 0
959	78570193 172 1721124 1728757 9.943266106883 9.9838851344 6 0 1 3 3
960	78570365 108 1721124 1728491 9.943266106883 9.983455429566 3 24000000 24000000 72000000 1.728e+15
961	78570473 96 1721124 1728491 9.943266106883 9.983455429566 3 1064 1064 3192 3396288
962	78570569 172 1721124 1728757 9.943266106883 9.9838851344 6 0 1 3 3
963	78570741 348 1721125 1728560 9.943266106883 9.983837429566 12 0 2 12 18
964	78571089 96 1721192 1728559 9.943648106883 9.983837429566 3 1064 1064 3192 3396288
965	78571185 96 1721192 1728559 9.943648106883 9.983837429566 3 1064 1064 3192 3396288
966	78571281 96 1721192 1728559 9.943648106883 9.983837429566 3 1064 1064 3192 3396288
967	78571377 31 1725751 1725751 9.96450760223 9.96450760223 1 1064 1064 1064 1132096
970	78571408 88 1721390 1728757 9.943695811717 9.9838851344 3 14 14 42 588
971	78571496 88 1721390 1728757 9.943695811717 9.9838851344 3 14 14 42 588
972	78571584 88 1721390 1728757 9.943695811717 9.9838851344 3 14 14 42 588
973	78571672 124 1721390 1728757 9.943695811717 9.9838851344 3 0.000429704834 0.000429704834 0.001289114502 5.539387330889e-07
974	78571796 64 1725070 1725781 9.963273512919 9.964507938352 2 1064 1064 2128 2264192
975	78571860 32 1725901 1725901 9.965801517195 9.965801517195 1 1064 1064 1064 1132096
976	78571892 32 1725949 1725949 9.965803907894 9.965803907894 1 1064 1064 1064 1132096
979	78571924 32 1724904 1724904 9.962889504115 9.962889504115 1 1000 1000 1000 1000000
980	78571956 32 1724905 1724905 9.962889504115 9.962889504115 1 1008 1008 1008 1016064
981	78571988 32 1724908 1724908 9.962889504115 9.962889504115 1 1036 1036 1036 1073296
982	78572020 32 1724908 1724908 9.962889504115 9.962889504115 1 1064 1064 1064 1132096
983	78572052 58 1724908 1724910 9.962889504115 9.962889504115 2 0 1 1 1
984	78572110 60 1724908 1725150 9.962889504115 9.963326504115 2 12 20 32 544
985	78572170 116 1724908 1725151 9.962889504115 9.963605504115 4 0 1 2 2
986	78572286 32 1724910 1724910 9.962889504115 9.962889504115 1 1064 1064 1064 1132096
987	78572318 29 1724910 1724910 9.962889504115 9.962889504115 1 0 0 0 0
988	78572347 58 1724910 1725424 9.962889504115 9.964035530275 2 0 1 1 1
989	78572405 72 1724910 1725152 9.962889504115 9.963605504115 2 24000000 24000000 48000000 1.152e+15
990	78572477 64 1724910 1725152 9.962889504115 9.963605504115 2 1064 1064 2128 2264192
991	78572541 116 1724910 1725424 9.962889504115 9.964035530275 4 0 1 2 2
992	78572657 232 1724911 1725223 9.962889504115 9.963987504115 8 0 2 8 12
993	78572889 64 1725065 1725222 9.963271504115 9.963987504115 2 1064 1064 2128 2264192
994	78572953 64 1725065 1725222 9.963271504115 9.963987504115 2 1064 1064 2128 2264192
995	78573017 32 1725065 1725065 9.963271504115 9.963271504115 1 1064 1064 1064 1132096
996	78573049 30 1725424 1725424 9.964035530275 9.964035530275 1 14 14 14 196
997	78573079 30 1725424 1725424 9.964035530275 9.964035530275 1 14 14 14 196
998	78573109 30 1725424 1725424 9.964035530275 9.964035530275 1 14 14 14 196
999	78573139 41 1725424 1725424 9.964035530275 9.964035530275 1 0.00114602616 0.00114602616 0.00114602616 1.3133759594043e-06
1000	78573180 66 1720341 1729969 9.924477054683 9.988826016417 2 1000 1000 2000 2000000
1001	78573246 66 1720342 1729970 9.924477054683 9.988826016417 2 1008 1008 2016 2032128
1002	78573312 66 1720345 1729973 9.924477054683 9.988826016417 2 1036 1036 2072 2146592
1003	78573378 66 1720345 1729973 9.924477054683 9.988826016417 2 1064 1064 2128 2264192
1004	78573444 120 1720345 1729975 9.924477054683 9.988826016417 4 0 1 2 2
1005	78573564 123 1720345 1730531 9.924477054683 9.990559016417 4 9 41 97 2879
1006	78573687 240 1720345 1730618 9.924477054683 9.991118016417 8 0 1 4 4
1007	78573927 66 1720347 1729975 9.924477054683 9.988826016417 2 1064 1064 2128 2264192
1008	78573993 60 1720347 1729975 9.924477054683 9.988826016417 2 0 0 0 0
1009	78574053 120 1720347 1730947 9.924477054683 9.991548858731 4 0 1 2 2
1010	78574173 148 1720347 1730619 9.924477054683 9.991118016417 4 24000000 24000000 96000000 2.304e+15
1011	78574321 132 1720347 1730619 9.924477054683 9.991118016417 4 1064 1064 4256 4528384
1012	78574453 240 1720347 1730947 9.924477054683 9.991548858731 8 0 1 4 4
1013	78574693 480 1720348 1730688 9.924477054683 9.991500016417 16 0 2 16 24
1014	78575173 132 1720415 1730687 9.924859054683 9.991500016417 4 1064 1064 4256 4528384
1015	78575305 132 1720415 1730687 9.924859054683 9.991500016417 4 1064 1064 4256 4528384
1016	78575437 66 1720415 1730112 9.924859054683 9.989208016417 2 1064 1064 2128 2264192
1017	78575503 62 1720675 1730947 9.924907896997 9.991548858731 2 14 14 28 392
1018	78575565 62 1720675 1730947 9.924907896997 9.991548858731 2 14 14 28 392
1019	78575627 62 1720675 1730947 9.924907896997 9.991548858731 2 14 14 28 392
1020	78575689 86 1720675 1730947 9.924907896997 9.991548858731 2 0.000430842314 0.002722842314 0.003153684628 7.5994953664417e-06
1021	78575775 33 1725222 1725222 9.963987504115 9.963987504115 1 1064 1064 1064 1132096
1025	78575808 66 1730434 1730687 9.990504016417 9.991500016417 2 1064 1064 2128 2264192
1040	78575874 1881 1734353 1734353 0.1 10 100 0 0 0 0
1041	78577755 1881 1734353 1734353 0.1 10 100 0 0 0 0
1042	78579636 1881 1734353 1734353 0.1 10 100 0 0 0 0
1043	78581517 1881 1734353 1734353 0.1 10 100 0 0 0 0
1044	78583398 1881 1734353 1734353 0.1 10 100 0 0 0 0
1045	78585279 1881 1734353 1734353 0.1 10 100 0 0 0 0
1046	78587160 1881 1734353 1734353 0.1 10 100 0 0 0 0
1047	78589041 1881 1734353 1734353 0.1 10 100 0 0 0 0
1048	78590922 1881 1734353 1734353 0.1 10 100 0 0 0 0
1049	78592803 1881 1734353 1734353 0.1 10 100 0 0 0 0
1050	78594684 1881 1734353 1734353 0.1 10 100 0 0 0 0
1051	78596565 1881 1734353 1734353 0.1 10 100 0 0 0 0

