file 20420426 1655330746                                        
version 2
run PartiallyOverlappingCampus-0-20220615-14:56:52-11374
attr configname PartiallyOverlappingCampus
attr datetime 20220615-14:56:52
attr experiment PartiallyOverlappingCampus
attr inifile campus.ini
attr iterationvars ""
attr iterationvarsf ""
attr measurement ""
attr network CampusLikeEnvironment
attr processid 11374
attr repetition 0
attr replication #0
attr resultdir results
attr runnumber 0
attr seedset 0
param *.NoiseDevice*.app[*].typename "\"UdpBasicApp\""
param *.NoiseDevice*.app[*].destAddresses "\"10.0.0.69\""
param *.NoiseDevice0.app[*].sendInterval exponential(320ms)
param *.NoiseDevice1.app[*].sendInterval exponential(150ms)
param *.NoiseDevice2.app[*].sendInterval exponential(25ms)
param *.NoiseServer.app[*].typename "\"UdpSink\""
param *.EndDevice*.numWlanInterfaces 2
param *.EndDevice*.app[*].typename "\"CustomApp\""
param *.EndDevice*.app[*].destAddresses "\"10.0.0.55 10.0.0.56 10.0.0.57 10.0.0.58 10.0.0.59 10.0.0.60 10.0.0.61 10.0.0.62 10.0.0.63 10.0.0.64 10.0.0.65 10.0.0.66 10.0.0.67 10.0.0.68\""
param *.EndDevice*.wlan[1].radio.channelNumber 0
param *.EndDevice0.wlan[0].radio.channelNumber 0
param *.EndDevice0.app[*].sendInterval exponential(40ms)
param *.EndDevice0.app[*].layer 0
param *.EndDevice1.wlan[0].radio.channelNumber 5
param *.EndDevice1.app[*].sendInterval exponential(40ms)
param *.EndDevice1.app[*].layer 5
param *.EndDevice2.wlan[0].radio.channelNumber 10
param *.EndDevice2.app[*].sendInterval exponential(40ms)
param *.EndDevice2.app[*].layer 3
param *.EndDevice3.wlan[0].radio.channelNumber 0
param *.EndDevice3.app[*].sendInterval exponential(40ms)
param *.EndDevice3.app[*].layer 7
param *.EndDevice4.wlan[0].radio.channelNumber 10
param *.EndDevice4.app[*].sendInterval exponential(40ms)
param *.EndDevice4.app[*].layer 10
param *.EndDevice5.wlan[0].radio.channelNumber 5
param *.EndDevice5.app[*].sendInterval exponential(40ms)
param *.EndDevice5.app[*].layer 2
param *.MiddleDevice*.numWlanInterfaces 14
param *.MiddleDevice*.app[*].typename "\"UdpSink\""
param *.MiddleDevice*.wlan[0].radio.channelNumber 0
param *.MiddleDevice*.wlan[1].radio.channelNumber 1
param *.MiddleDevice*.wlan[2].radio.channelNumber 2
param *.MiddleDevice*.wlan[3].radio.channelNumber 3
param *.MiddleDevice*.wlan[4].radio.channelNumber 4
param *.MiddleDevice*.wlan[5].radio.channelNumber 5
param *.MiddleDevice*.wlan[6].radio.channelNumber 6
param *.MiddleDevice*.wlan[7].radio.channelNumber 7
param *.MiddleDevice*.wlan[8].radio.channelNumber 8
param *.MiddleDevice*.wlan[9].radio.channelNumber 9
param *.MiddleDevice*.wlan[10].radio.channelNumber 10
param *.MiddleDevice*.wlan[11].radio.channelNumber 11
param *.MiddleDevice*.wlan[12].radio.channelNumber 12
param *.MiddleDevice*.wlan[13].radio.channelNumber 13
param *.ServerRadio.numWlanInterfaces 14
param *.ServerRadio.app[*].typename "\"UdpSink\""
param *.ServerRadio.wlan[0].radio.channelNumber 0
param *.ServerRadio.wlan[1].radio.channelNumber 1
param *.ServerRadio.wlan[2].radio.channelNumber 2
param *.ServerRadio.wlan[3].radio.channelNumber 3
param *.ServerRadio.wlan[4].radio.channelNumber 4
param *.ServerRadio.wlan[5].radio.channelNumber 5
param *.ServerRadio.wlan[6].radio.channelNumber 6
param *.ServerRadio.wlan[7].radio.channelNumber 7
param *.ServerRadio.wlan[8].radio.channelNumber 8
param *.ServerRadio.wlan[9].radio.channelNumber 9
param *.ServerRadio.wlan[10].radio.channelNumber 10
param *.ServerRadio.wlan[11].radio.channelNumber 11
param *.ServerRadio.wlan[12].radio.channelNumber 12
param *.ServerRadio.wlan[13].radio.channelNumber 13
param **.numMediumVisualizers 4
param **.displaySignals true
param **.arp.typename "\"GlobalArp\""
param *.visualizer.ieee80211Visualizer[*].displayAssociations true
param *.visualizer.physicalLinkVisualizer[*].displayLinks true
param *.visualizer.dataLinkVisualizer[*].displayLinks true
param *.visualizer.networkRouteVisualizer[*].displayRoutes true
param *.visualizer.*LinkVisualizer[*].lineShift 0
param *.visualizer.networkRouteVisualizer[*].lineShift 0
param **.wlan[*].radio.typename "\"Ieee80211DimensionalRadio\""
param **.wlan[*].radio.displayInterferenceRange true
param **.wlan[*].typename "\"Ieee80211Interface\""
param *.configurator.config "xmldoc(\"./campusConfig.xml\")"
param *.configurator.optimizeRoutes false
param **.ipv4.routingTable.netmaskRoutes "\"\""
param *.*Server*.forwarding false
param **.numApps 1
param *.NoiseDevice*.app[*].startTime exponential(10us)
param *.EndDevice*.app[*].startTime exponential(500ms)
param **.app[*].localPort 100
param **.app[*].destPort 100
param **.app[*].messageLength 1000B

vector 0 CampusLikeEnvironment.EndDevice0.wlan[0].radio radioMode:vector ETV
attr interpolationmode sample-hold
attr source radioModeChanged
attr title "Radio mode, vector"
vector 1 CampusLikeEnvironment.EndDevice0.wlan[0].radio radioChannel:vector ETV
attr interpolationmode sample-hold
attr source radioChannelChanged
attr title "Radio channel, vector"
vector 2 CampusLikeEnvironment.EndDevice0.wlan[1].radio radioMode:vector ETV
attr interpolationmode sample-hold
attr source radioModeChanged
attr title "Radio mode, vector"
vector 3 CampusLikeEnvironment.EndDevice0.wlan[1].radio radioChannel:vector ETV
attr interpolationmode sample-hold
attr source radioChannelChanged
attr title "Radio channel, vector"
vector 4 CampusLikeEnvironment.EndDevice1.wlan[0].radio radioMode:vector ETV
attr interpolationmode sample-hold
attr source radioModeChanged
attr title "Radio mode, vector"
vector 5 CampusLikeEnvironment.EndDevice1.wlan[0].radio radioChannel:vector ETV
attr interpolationmode sample-hold
attr source radioChannelChanged
attr title "Radio channel, vector"
vector 6 CampusLikeEnvironment.EndDevice1.wlan[1].radio radioMode:vector ETV
attr interpolationmode sample-hold
attr source radioModeChanged
attr title "Radio mode, vector"
vector 7 CampusLikeEnvironment.EndDevice1.wlan[1].radio radioChannel:vector ETV
attr interpolationmode sample-hold
attr source radioChannelChanged
attr title "Radio channel, vector"
vector 8 CampusLikeEnvironment.EndDevice2.wlan[0].radio radioMode:vector ETV
attr interpolationmode sample-hold
attr source radioModeChanged
attr title "Radio mode, vector"
vector 9 CampusLikeEnvironment.EndDevice2.wlan[0].radio radioChannel:vector ETV
attr interpolationmode sample-hold
attr source radioChannelChanged
attr title "Radio channel, vector"
vector 10 CampusLikeEnvironment.EndDevice2.wlan[1].radio radioMode:vector ETV
attr interpolationmode sample-hold
attr source radioModeChanged
attr title "Radio mode, vector"
vector 11 CampusLikeEnvironment.EndDevice2.wlan[1].radio radioChannel:vector ETV
attr interpolationmode sample-hold
attr source radioChannelChanged
attr title "Radio channel, vector"
vector 12 CampusLikeEnvironment.EndDevice3.wlan[0].radio radioMode:vector ETV
attr interpolationmode sample-hold
attr source radioModeChanged
attr title "Radio mode, vector"
vector 13 CampusLikeEnvironment.EndDevice3.wlan[0].radio radioChannel:vector ETV
attr interpolationmode sample-hold
attr source radioChannelChanged
attr title "Radio channel, vector"
vector 14 CampusLikeEnvironment.EndDevice3.wlan[1].radio radioMode:vector ETV
attr interpolationmode sample-hold
attr source radioModeChanged
attr title "Radio mode, vector"
vector 15 CampusLikeEnvironment.EndDevice3.wlan[1].radio radioChannel:vector ETV
attr interpolationmode sample-hold
attr source radioChannelChanged
attr title "Radio channel, vector"
vector 16 CampusLikeEnvironment.EndDevice4.wlan[0].radio radioMode:vector ETV
attr interpolationmode sample-hold
attr source radioModeChanged
attr title "Radio mode, vector"
vector 17 CampusLikeEnvironment.EndDevice4.wlan[0].radio radioChannel:vector ETV
attr interpolationmode sample-hold
attr source radioChannelChanged
attr title "Radio channel, vector"
vector 18 CampusLikeEnvironment.EndDevice4.wlan[1].radio radioMode:vector ETV
attr interpolationmode sample-hold
attr source radioModeChanged
attr title "Radio mode, vector"
vector 19 CampusLikeEnvironment.EndDevice4.wlan[1].radio radioChannel:vector ETV
attr interpolationmode sample-hold
attr source radioChannelChanged
attr title "Radio channel, vector"
vector 20 CampusLikeEnvironment.EndDevice5.wlan[0].radio radioMode:vector ETV
attr interpolationmode sample-hold
attr source radioModeChanged
attr title "Radio mode, vector"
vector 21 CampusLikeEnvironment.EndDevice5.wlan[0].radio radioChannel:vector ETV
attr interpolationmode sample-hold
attr source radioChannelChanged
attr title "Radio channel, vector"
vector 22 CampusLikeEnvironment.EndDevice5.wlan[1].radio radioMode:vector ETV
attr interpolationmode sample-hold
attr source radioModeChanged
attr title "Radio mode, vector"
vector 23 CampusLikeEnvironment.EndDevice5.wlan[1].radio radioChannel:vector ETV
attr interpolationmode sample-hold
attr source radioChannelChanged
attr title "Radio channel, vector"
vector 24 CampusLikeEnvironment.MiddleDevice0.wlan[0].radio radioMode:vector ETV
attr interpolationmode sample-hold
attr source radioModeChanged
attr title "Radio mode, vector"
vector 25 CampusLikeEnvironment.MiddleDevice0.wlan[0].radio radioChannel:vector ETV
attr interpolationmode sample-hold
attr source radioChannelChanged
attr title "Radio channel, vector"
vector 26 CampusLikeEnvironment.MiddleDevice0.wlan[1].radio radioMode:vector ETV
attr interpolationmode sample-hold
attr source radioModeChanged
attr title "Radio mode, vector"
vector 27 CampusLikeEnvironment.MiddleDevice0.wlan[1].radio radioChannel:vector ETV
attr interpolationmode sample-hold
attr source radioChannelChanged
attr title "Radio channel, vector"
vector 28 CampusLikeEnvironment.MiddleDevice0.wlan[2].radio radioMode:vector ETV
attr interpolationmode sample-hold
attr source radioModeChanged
attr title "Radio mode, vector"
vector 29 CampusLikeEnvironment.MiddleDevice0.wlan[2].radio radioChannel:vector ETV
attr interpolationmode sample-hold
attr source radioChannelChanged
attr title "Radio channel, vector"
vector 30 CampusLikeEnvironment.MiddleDevice0.wlan[3].radio radioMode:vector ETV
attr interpolationmode sample-hold
attr source radioModeChanged
attr title "Radio mode, vector"
vector 31 CampusLikeEnvironment.MiddleDevice0.wlan[3].radio radioChannel:vector ETV
attr interpolationmode sample-hold
attr source radioChannelChanged
attr title "Radio channel, vector"
vector 32 CampusLikeEnvironment.MiddleDevice0.wlan[4].radio radioMode:vector ETV
attr interpolationmode sample-hold
attr source radioModeChanged
attr title "Radio mode, vector"
vector 33 CampusLikeEnvironment.MiddleDevice0.wlan[4].radio radioChannel:vector ETV
attr interpolationmode sample-hold
attr source radioChannelChanged
attr title "Radio channel, vector"
vector 34 CampusLikeEnvironment.MiddleDevice0.wlan[5].radio radioMode:vector ETV
attr interpolationmode sample-hold
attr source radioModeChanged
attr title "Radio mode, vector"
vector 35 CampusLikeEnvironment.MiddleDevice0.wlan[5].radio radioChannel:vector ETV
attr interpolationmode sample-hold
attr source radioChannelChanged
attr title "Radio channel, vector"
vector 36 CampusLikeEnvironment.MiddleDevice0.wlan[6].radio radioMode:vector ETV
attr interpolationmode sample-hold
attr source radioModeChanged
attr title "Radio mode, vector"
vector 37 CampusLikeEnvironment.MiddleDevice0.wlan[6].radio radioChannel:vector ETV
attr interpolationmode sample-hold
attr source radioChannelChanged
attr title "Radio channel, vector"
vector 38 CampusLikeEnvironment.MiddleDevice0.wlan[7].radio radioMode:vector ETV
attr interpolationmode sample-hold
attr source radioModeChanged
attr title "Radio mode, vector"
vector 39 CampusLikeEnvironment.MiddleDevice0.wlan[7].radio radioChannel:vector ETV
attr interpolationmode sample-hold
attr source radioChannelChanged
attr title "Radio channel, vector"
vector 40 CampusLikeEnvironment.MiddleDevice0.wlan[8].radio radioMode:vector ETV
attr interpolationmode sample-hold
attr source radioModeChanged
attr title "Radio mode, vector"
vector 41 CampusLikeEnvironment.MiddleDevice0.wlan[8].radio radioChannel:vector ETV
attr interpolationmode sample-hold
attr source radioChannelChanged
attr title "Radio channel, vector"
vector 42 CampusLikeEnvironment.MiddleDevice0.wlan[9].radio radioMode:vector ETV
attr interpolationmode sample-hold
attr source radioModeChanged
attr title "Radio mode, vector"
vector 43 CampusLikeEnvironment.MiddleDevice0.wlan[9].radio radioChannel:vector ETV
attr interpolationmode sample-hold
attr source radioChannelChanged
attr title "Radio channel, vector"
vector 44 CampusLikeEnvironment.MiddleDevice0.wlan[10].radio radioMode:vector ETV
attr interpolationmode sample-hold
attr source radioModeChanged
attr title "Radio mode, vector"
vector 45 CampusLikeEnvironment.MiddleDevice0.wlan[10].radio radioChannel:vector ETV
attr interpolationmode sample-hold
attr source radioChannelChanged
attr title "Radio channel, vector"
vector 46 CampusLikeEnvironment.MiddleDevice0.wlan[11].radio radioMode:vector ETV
attr interpolationmode sample-hold
attr source radioModeChanged
attr title "Radio mode, vector"
vector 47 CampusLikeEnvironment.MiddleDevice0.wlan[11].radio radioChannel:vector ETV
attr interpolationmode sample-hold
attr source radioChannelChanged
attr title "Radio channel, vector"
vector 48 CampusLikeEnvironment.MiddleDevice0.wlan[12].radio radioMode:vector ETV
attr interpolationmode sample-hold
attr source radioModeChanged
attr title "Radio mode, vector"
vector 49 CampusLikeEnvironment.MiddleDevice0.wlan[12].radio radioChannel:vector ETV
attr interpolationmode sample-hold
attr source radioChannelChanged
attr title "Radio channel, vector"
vector 50 CampusLikeEnvironment.MiddleDevice0.wlan[13].radio radioMode:vector ETV
attr interpolationmode sample-hold
attr source radioModeChanged
attr title "Radio mode, vector"
vector 51 CampusLikeEnvironment.MiddleDevice0.wlan[13].radio radioChannel:vector ETV
attr interpolationmode sample-hold
attr source radioChannelChanged
attr title "Radio channel, vector"
vector 52 CampusLikeEnvironment.MiddleDevice1.wlan[0].radio radioMode:vector ETV
attr interpolationmode sample-hold
attr source radioModeChanged
attr title "Radio mode, vector"
vector 53 CampusLikeEnvironment.MiddleDevice1.wlan[0].radio radioChannel:vector ETV
attr interpolationmode sample-hold
attr source radioChannelChanged
attr title "Radio channel, vector"
vector 54 CampusLikeEnvironment.MiddleDevice1.wlan[1].radio radioMode:vector ETV
attr interpolationmode sample-hold
attr source radioModeChanged
attr title "Radio mode, vector"
vector 55 CampusLikeEnvironment.MiddleDevice1.wlan[1].radio radioChannel:vector ETV
attr interpolationmode sample-hold
attr source radioChannelChanged
attr title "Radio channel, vector"
vector 56 CampusLikeEnvironment.MiddleDevice1.wlan[2].radio radioMode:vector ETV
attr interpolationmode sample-hold
attr source radioModeChanged
attr title "Radio mode, vector"
vector 57 CampusLikeEnvironment.MiddleDevice1.wlan[2].radio radioChannel:vector ETV
attr interpolationmode sample-hold
attr source radioChannelChanged
attr title "Radio channel, vector"
vector 58 CampusLikeEnvironment.MiddleDevice1.wlan[3].radio radioMode:vector ETV
attr interpolationmode sample-hold
attr source radioModeChanged
attr title "Radio mode, vector"
vector 59 CampusLikeEnvironment.MiddleDevice1.wlan[3].radio radioChannel:vector ETV
attr interpolationmode sample-hold
attr source radioChannelChanged
attr title "Radio channel, vector"
vector 60 CampusLikeEnvironment.MiddleDevice1.wlan[4].radio radioMode:vector ETV
attr interpolationmode sample-hold
attr source radioModeChanged
attr title "Radio mode, vector"
vector 61 CampusLikeEnvironment.MiddleDevice1.wlan[4].radio radioChannel:vector ETV
attr interpolationmode sample-hold
attr source radioChannelChanged
attr title "Radio channel, vector"
vector 62 CampusLikeEnvironment.MiddleDevice1.wlan[5].radio radioMode:vector ETV
attr interpolationmode sample-hold
attr source radioModeChanged
attr title "Radio mode, vector"
vector 63 CampusLikeEnvironment.MiddleDevice1.wlan[5].radio radioChannel:vector ETV
attr interpolationmode sample-hold
attr source radioChannelChanged
attr title "Radio channel, vector"
vector 64 CampusLikeEnvironment.MiddleDevice1.wlan[6].radio radioMode:vector ETV
attr interpolationmode sample-hold
attr source radioModeChanged
attr title "Radio mode, vector"
vector 65 CampusLikeEnvironment.MiddleDevice1.wlan[6].radio radioChannel:vector ETV
attr interpolationmode sample-hold
attr source radioChannelChanged
attr title "Radio channel, vector"
vector 66 CampusLikeEnvironment.MiddleDevice1.wlan[7].radio radioMode:vector ETV
attr interpolationmode sample-hold
attr source radioModeChanged
attr title "Radio mode, vector"
vector 67 CampusLikeEnvironment.MiddleDevice1.wlan[7].radio radioChannel:vector ETV
attr interpolationmode sample-hold
attr source radioChannelChanged
attr title "Radio channel, vector"
vector 68 CampusLikeEnvironment.MiddleDevice1.wlan[8].radio radioMode:vector ETV
attr interpolationmode sample-hold
attr source radioModeChanged
attr title "Radio mode, vector"
vector 69 CampusLikeEnvironment.MiddleDevice1.wlan[8].radio radioChannel:vector ETV
attr interpolationmode sample-hold
attr source radioChannelChanged
attr title "Radio channel, vector"
vector 70 CampusLikeEnvironment.MiddleDevice1.wlan[9].radio radioMode:vector ETV
attr interpolationmode sample-hold
attr source radioModeChanged
attr title "Radio mode, vector"
vector 71 CampusLikeEnvironment.MiddleDevice1.wlan[9].radio radioChannel:vector ETV
attr interpolationmode sample-hold
attr source radioChannelChanged
attr title "Radio channel, vector"
vector 72 CampusLikeEnvironment.MiddleDevice1.wlan[10].radio radioMode:vector ETV
attr interpolationmode sample-hold
attr source radioModeChanged
attr title "Radio mode, vector"
vector 73 CampusLikeEnvironment.MiddleDevice1.wlan[10].radio radioChannel:vector ETV
attr interpolationmode sample-hold
attr source radioChannelChanged
attr title "Radio channel, vector"
vector 74 CampusLikeEnvironment.MiddleDevice1.wlan[11].radio radioMode:vector ETV
attr interpolationmode sample-hold
attr source radioModeChanged
attr title "Radio mode, vector"
vector 75 CampusLikeEnvironment.MiddleDevice1.wlan[11].radio radioChannel:vector ETV
attr interpolationmode sample-hold
attr source radioChannelChanged
attr title "Radio channel, vector"
vector 76 CampusLikeEnvironment.MiddleDevice1.wlan[12].radio radioMode:vector ETV
attr interpolationmode sample-hold
attr source radioModeChanged
attr title "Radio mode, vector"
vector 77 CampusLikeEnvironment.MiddleDevice1.wlan[12].radio radioChannel:vector ETV
attr interpolationmode sample-hold
attr source radioChannelChanged
attr title "Radio channel, vector"
vector 78 CampusLikeEnvironment.MiddleDevice1.wlan[13].radio radioMode:vector ETV
attr interpolationmode sample-hold
attr source radioModeChanged
attr title "Radio mode, vector"
vector 79 CampusLikeEnvironment.MiddleDevice1.wlan[13].radio radioChannel:vector ETV
attr interpolationmode sample-hold
attr source radioChannelChanged
attr title "Radio channel, vector"
vector 80 CampusLikeEnvironment.MiddleDevice2.wlan[0].radio radioMode:vector ETV
attr interpolationmode sample-hold
attr source radioModeChanged
attr title "Radio mode, vector"
vector 81 CampusLikeEnvironment.MiddleDevice2.wlan[0].radio radioChannel:vector ETV
attr interpolationmode sample-hold
attr source radioChannelChanged
attr title "Radio channel, vector"
vector 82 CampusLikeEnvironment.MiddleDevice2.wlan[1].radio radioMode:vector ETV
attr interpolationmode sample-hold
attr source radioModeChanged
attr title "Radio mode, vector"
vector 83 CampusLikeEnvironment.MiddleDevice2.wlan[1].radio radioChannel:vector ETV
attr interpolationmode sample-hold
attr source radioChannelChanged
attr title "Radio channel, vector"
vector 84 CampusLikeEnvironment.MiddleDevice2.wlan[2].radio radioMode:vector ETV
attr interpolationmode sample-hold
attr source radioModeChanged
attr title "Radio mode, vector"
vector 85 CampusLikeEnvironment.MiddleDevice2.wlan[2].radio radioChannel:vector ETV
attr interpolationmode sample-hold
attr source radioChannelChanged
attr title "Radio channel, vector"
vector 86 CampusLikeEnvironment.MiddleDevice2.wlan[3].radio radioMode:vector ETV
attr interpolationmode sample-hold
attr source radioModeChanged
attr title "Radio mode, vector"
vector 87 CampusLikeEnvironment.MiddleDevice2.wlan[3].radio radioChannel:vector ETV
attr interpolationmode sample-hold
attr source radioChannelChanged
attr title "Radio channel, vector"
vector 88 CampusLikeEnvironment.MiddleDevice2.wlan[4].radio radioMode:vector ETV
attr interpolationmode sample-hold
attr source radioModeChanged
attr title "Radio mode, vector"
vector 89 CampusLikeEnvironment.MiddleDevice2.wlan[4].radio radioChannel:vector ETV
attr interpolationmode sample-hold
attr source radioChannelChanged
attr title "Radio channel, vector"
vector 90 CampusLikeEnvironment.MiddleDevice2.wlan[5].radio radioMode:vector ETV
attr interpolationmode sample-hold
attr source radioModeChanged
attr title "Radio mode, vector"
vector 91 CampusLikeEnvironment.MiddleDevice2.wlan[5].radio radioChannel:vector ETV
attr interpolationmode sample-hold
attr source radioChannelChanged
attr title "Radio channel, vector"
vector 92 CampusLikeEnvironment.MiddleDevice2.wlan[6].radio radioMode:vector ETV
attr interpolationmode sample-hold
attr source radioModeChanged
attr title "Radio mode, vector"
vector 93 CampusLikeEnvironment.MiddleDevice2.wlan[6].radio radioChannel:vector ETV
attr interpolationmode sample-hold
attr source radioChannelChanged
attr title "Radio channel, vector"
vector 94 CampusLikeEnvironment.MiddleDevice2.wlan[7].radio radioMode:vector ETV
attr interpolationmode sample-hold
attr source radioModeChanged
attr title "Radio mode, vector"
vector 95 CampusLikeEnvironment.MiddleDevice2.wlan[7].radio radioChannel:vector ETV
attr interpolationmode sample-hold
attr source radioChannelChanged
attr title "Radio channel, vector"
vector 96 CampusLikeEnvironment.MiddleDevice2.wlan[8].radio radioMode:vector ETV
attr interpolationmode sample-hold
attr source radioModeChanged
attr title "Radio mode, vector"
vector 97 CampusLikeEnvironment.MiddleDevice2.wlan[8].radio radioChannel:vector ETV
attr interpolationmode sample-hold
attr source radioChannelChanged
attr title "Radio channel, vector"
vector 98 CampusLikeEnvironment.MiddleDevice2.wlan[9].radio radioMode:vector ETV
attr interpolationmode sample-hold
attr source radioModeChanged
attr title "Radio mode, vector"
vector 99 CampusLikeEnvironment.MiddleDevice2.wlan[9].radio radioChannel:vector ETV
attr interpolationmode sample-hold
attr source radioChannelChanged
attr title "Radio channel, vector"
vector 100 CampusLikeEnvironment.MiddleDevice2.wlan[10].radio radioMode:vector ETV
attr interpolationmode sample-hold
attr source radioModeChanged
attr title "Radio mode, vector"
vector 101 CampusLikeEnvironment.MiddleDevice2.wlan[10].radio radioChannel:vector ETV
attr interpolationmode sample-hold
attr source radioChannelChanged
attr title "Radio channel, vector"
vector 102 CampusLikeEnvironment.MiddleDevice2.wlan[11].radio radioMode:vector ETV
attr interpolationmode sample-hold
attr source radioModeChanged
attr title "Radio mode, vector"
vector 103 CampusLikeEnvironment.MiddleDevice2.wlan[11].radio radioChannel:vector ETV
attr interpolationmode sample-hold
attr source radioChannelChanged
attr title "Radio channel, vector"
vector 104 CampusLikeEnvironment.MiddleDevice2.wlan[12].radio radioMode:vector ETV
attr interpolationmode sample-hold
attr source radioModeChanged
attr title "Radio mode, vector"
vector 105 CampusLikeEnvironment.MiddleDevice2.wlan[12].radio radioChannel:vector ETV
attr interpolationmode sample-hold
attr source radioChannelChanged
attr title "Radio channel, vector"
vector 106 CampusLikeEnvironment.MiddleDevice2.wlan[13].radio radioMode:vector ETV
attr interpolationmode sample-hold
attr source radioModeChanged
attr title "Radio mode, vector"
vector 107 CampusLikeEnvironment.MiddleDevice2.wlan[13].radio radioChannel:vector ETV
attr interpolationmode sample-hold
attr source radioChannelChanged
attr title "Radio channel, vector"
vector 108 CampusLikeEnvironment.ServerRadio.wlan[0].radio radioMode:vector ETV
attr interpolationmode sample-hold
attr source radioModeChanged
attr title "Radio mode, vector"
vector 109 CampusLikeEnvironment.ServerRadio.wlan[0].radio radioChannel:vector ETV
attr interpolationmode sample-hold
attr source radioChannelChanged
attr title "Radio channel, vector"
vector 110 CampusLikeEnvironment.ServerRadio.wlan[1].radio radioMode:vector ETV
attr interpolationmode sample-hold
attr source radioModeChanged
attr title "Radio mode, vector"
vector 111 CampusLikeEnvironment.ServerRadio.wlan[1].radio radioChannel:vector ETV
attr interpolationmode sample-hold
attr source radioChannelChanged
attr title "Radio channel, vector"
vector 112 CampusLikeEnvironment.ServerRadio.wlan[2].radio radioMode:vector ETV
attr interpolationmode sample-hold
attr source radioModeChanged
attr title "Radio mode, vector"
vector 113 CampusLikeEnvironment.ServerRadio.wlan[2].radio radioChannel:vector ETV
attr interpolationmode sample-hold
attr source radioChannelChanged
attr title "Radio channel, vector"
vector 114 CampusLikeEnvironment.ServerRadio.wlan[3].radio radioMode:vector ETV
attr interpolationmode sample-hold
attr source radioModeChanged
attr title "Radio mode, vector"
vector 115 CampusLikeEnvironment.ServerRadio.wlan[3].radio radioChannel:vector ETV
attr interpolationmode sample-hold
attr source radioChannelChanged
attr title "Radio channel, vector"
vector 116 CampusLikeEnvironment.ServerRadio.wlan[4].radio radioMode:vector ETV
attr interpolationmode sample-hold
attr source radioModeChanged
attr title "Radio mode, vector"
vector 117 CampusLikeEnvironment.ServerRadio.wlan[4].radio radioChannel:vector ETV
attr interpolationmode sample-hold
attr source radioChannelChanged
attr title "Radio channel, vector"
vector 118 CampusLikeEnvironment.ServerRadio.wlan[5].radio radioMode:vector ETV
attr interpolationmode sample-hold
attr source radioModeChanged
attr title "Radio mode, vector"
vector 119 CampusLikeEnvironment.ServerRadio.wlan[5].radio radioChannel:vector ETV
attr interpolationmode sample-hold
attr source radioChannelChanged
attr title "Radio channel, vector"
vector 120 CampusLikeEnvironment.ServerRadio.wlan[6].radio radioMode:vector ETV
attr interpolationmode sample-hold
attr source radioModeChanged
attr title "Radio mode, vector"
vector 121 CampusLikeEnvironment.ServerRadio.wlan[6].radio radioChannel:vector ETV
attr interpolationmode sample-hold
attr source radioChannelChanged
attr title "Radio channel, vector"
vector 122 CampusLikeEnvironment.ServerRadio.wlan[7].radio radioMode:vector ETV
attr interpolationmode sample-hold
attr source radioModeChanged
attr title "Radio mode, vector"
vector 123 CampusLikeEnvironment.ServerRadio.wlan[7].radio radioChannel:vector ETV
attr interpolationmode sample-hold
attr source radioChannelChanged
attr title "Radio channel, vector"
vector 124 CampusLikeEnvironment.ServerRadio.wlan[8].radio radioMode:vector ETV
attr interpolationmode sample-hold
attr source radioModeChanged
attr title "Radio mode, vector"
vector 125 CampusLikeEnvironment.ServerRadio.wlan[8].radio radioChannel:vector ETV
attr interpolationmode sample-hold
attr source radioChannelChanged
attr title "Radio channel, vector"
vector 126 CampusLikeEnvironment.ServerRadio.wlan[9].radio radioMode:vector ETV
attr interpolationmode sample-hold
attr source radioModeChanged
attr title "Radio mode, vector"
vector 127 CampusLikeEnvironment.ServerRadio.wlan[9].radio radioChannel:vector ETV
attr interpolationmode sample-hold
attr source radioChannelChanged
attr title "Radio channel, vector"
vector 128 CampusLikeEnvironment.ServerRadio.wlan[10].radio radioMode:vector ETV
attr interpolationmode sample-hold
attr source radioModeChanged
attr title "Radio mode, vector"
vector 129 CampusLikeEnvironment.ServerRadio.wlan[10].radio radioChannel:vector ETV
attr interpolationmode sample-hold
attr source radioChannelChanged
attr title "Radio channel, vector"
vector 130 CampusLikeEnvironment.ServerRadio.wlan[11].radio radioMode:vector ETV
attr interpolationmode sample-hold
attr source radioModeChanged
attr title "Radio mode, vector"
vector 131 CampusLikeEnvironment.ServerRadio.wlan[11].radio radioChannel:vector ETV
attr interpolationmode sample-hold
attr source radioChannelChanged
attr title "Radio channel, vector"
vector 132 CampusLikeEnvironment.ServerRadio.wlan[12].radio radioMode:vector ETV
attr interpolationmode sample-hold
attr source radioModeChanged
attr title "Radio mode, vector"
vector 133 CampusLikeEnvironment.ServerRadio.wlan[12].radio radioChannel:vector ETV
attr interpolationmode sample-hold
attr source radioChannelChanged
attr title "Radio channel, vector"
vector 134 CampusLikeEnvironment.ServerRadio.wlan[13].radio radioMode:vector ETV
attr interpolationmode sample-hold
attr source radioModeChanged
attr title "Radio mode, vector"
vector 135 CampusLikeEnvironment.ServerRadio.wlan[13].radio radioChannel:vector ETV
attr interpolationmode sample-hold
attr source radioChannelChanged
attr title "Radio channel, vector"
vector 136 CampusLikeEnvironment.NoiseServer.wlan[0].radio radioMode:vector ETV
attr interpolationmode sample-hold
attr source radioModeChanged
attr title "Radio mode, vector"
vector 137 CampusLikeEnvironment.NoiseServer.wlan[0].radio radioChannel:vector ETV
attr interpolationmode sample-hold
attr source radioChannelChanged
attr title "Radio channel, vector"
vector 138 CampusLikeEnvironment.NoiseDevice0.wlan[0].radio radioMode:vector ETV
attr interpolationmode sample-hold
attr source radioModeChanged
attr title "Radio mode, vector"
vector 139 CampusLikeEnvironment.NoiseDevice0.wlan[0].radio radioChannel:vector ETV
attr interpolationmode sample-hold
attr source radioChannelChanged
attr title "Radio channel, vector"
vector 140 CampusLikeEnvironment.NoiseDevice1.wlan[0].radio radioMode:vector ETV
attr interpolationmode sample-hold
attr source radioModeChanged
attr title "Radio mode, vector"
vector 141 CampusLikeEnvironment.NoiseDevice1.wlan[0].radio radioChannel:vector ETV
attr interpolationmode sample-hold
attr source radioChannelChanged
attr title "Radio channel, vector"
vector 142 CampusLikeEnvironment.NoiseDevice2.wlan[0].radio radioMode:vector ETV
attr interpolationmode sample-hold
attr source radioModeChanged
attr title "Radio mode, vector"
vector 143 CampusLikeEnvironment.NoiseDevice2.wlan[0].radio radioChannel:vector ETV
attr interpolationmode sample-hold
attr source radioChannelChanged
attr title "Radio channel, vector"
vector 144 CampusLikeEnvironment.EndDevice0.wlan[0].radio receptionState:vector ETV
attr interpolationmode sample-hold
attr source receptionStateChanged
attr title "Radio reception state, vector"
vector 145 CampusLikeEnvironment.EndDevice0.wlan[1].radio receptionState:vector ETV
attr interpolationmode sample-hold
attr source receptionStateChanged
attr title "Radio reception state, vector"
vector 146 CampusLikeEnvironment.EndDevice1.wlan[0].radio receptionState:vector ETV
attr interpolationmode sample-hold
attr source receptionStateChanged
attr title "Radio reception state, vector"
vector 147 CampusLikeEnvironment.EndDevice1.wlan[1].radio receptionState:vector ETV
attr interpolationmode sample-hold
attr source receptionStateChanged
attr title "Radio reception state, vector"
vector 148 CampusLikeEnvironment.EndDevice2.wlan[0].radio receptionState:vector ETV
attr interpolationmode sample-hold
attr source receptionStateChanged
attr title "Radio reception state, vector"
vector 149 CampusLikeEnvironment.EndDevice2.wlan[1].radio receptionState:vector ETV
attr interpolationmode sample-hold
attr source receptionStateChanged
attr title "Radio reception state, vector"
vector 150 CampusLikeEnvironment.EndDevice3.wlan[0].radio receptionState:vector ETV
attr interpolationmode sample-hold
attr source receptionStateChanged
attr title "Radio reception state, vector"
vector 151 CampusLikeEnvironment.EndDevice3.wlan[1].radio receptionState:vector ETV
attr interpolationmode sample-hold
attr source receptionStateChanged
attr title "Radio reception state, vector"
vector 152 CampusLikeEnvironment.EndDevice4.wlan[0].radio receptionState:vector ETV
attr interpolationmode sample-hold
attr source receptionStateChanged
attr title "Radio reception state, vector"
vector 153 CampusLikeEnvironment.EndDevice4.wlan[1].radio receptionState:vector ETV
attr interpolationmode sample-hold
attr source receptionStateChanged
attr title "Radio reception state, vector"
vector 154 CampusLikeEnvironment.EndDevice5.wlan[0].radio receptionState:vector ETV
attr interpolationmode sample-hold
attr source receptionStateChanged
attr title "Radio reception state, vector"
vector 155 CampusLikeEnvironment.EndDevice5.wlan[1].radio receptionState:vector ETV
attr interpolationmode sample-hold
attr source receptionStateChanged
attr title "Radio reception state, vector"
vector 156 CampusLikeEnvironment.MiddleDevice0.wlan[0].radio receptionState:vector ETV
attr interpolationmode sample-hold
attr source receptionStateChanged
attr title "Radio reception state, vector"
vector 157 CampusLikeEnvironment.MiddleDevice0.wlan[1].radio receptionState:vector ETV
attr interpolationmode sample-hold
attr source receptionStateChanged
attr title "Radio reception state, vector"
vector 158 CampusLikeEnvironment.MiddleDevice0.wlan[2].radio receptionState:vector ETV
attr interpolationmode sample-hold
attr source receptionStateChanged
attr title "Radio reception state, vector"
vector 159 CampusLikeEnvironment.MiddleDevice0.wlan[3].radio receptionState:vector ETV
attr interpolationmode sample-hold
attr source receptionStateChanged
attr title "Radio reception state, vector"
vector 160 CampusLikeEnvironment.MiddleDevice0.wlan[4].radio receptionState:vector ETV
attr interpolationmode sample-hold
attr source receptionStateChanged
attr title "Radio reception state, vector"
vector 161 CampusLikeEnvironment.MiddleDevice0.wlan[5].radio receptionState:vector ETV
attr interpolationmode sample-hold
attr source receptionStateChanged
attr title "Radio reception state, vector"
vector 162 CampusLikeEnvironment.MiddleDevice0.wlan[6].radio receptionState:vector ETV
attr interpolationmode sample-hold
attr source receptionStateChanged
attr title "Radio reception state, vector"
vector 163 CampusLikeEnvironment.MiddleDevice0.wlan[7].radio receptionState:vector ETV
attr interpolationmode sample-hold
attr source receptionStateChanged
attr title "Radio reception state, vector"
vector 164 CampusLikeEnvironment.MiddleDevice0.wlan[8].radio receptionState:vector ETV
attr interpolationmode sample-hold
attr source receptionStateChanged
attr title "Radio reception state, vector"
vector 165 CampusLikeEnvironment.MiddleDevice0.wlan[9].radio receptionState:vector ETV
attr interpolationmode sample-hold
attr source receptionStateChanged
attr title "Radio reception state, vector"
vector 166 CampusLikeEnvironment.MiddleDevice0.wlan[10].radio receptionState:vector ETV
attr interpolationmode sample-hold
attr source receptionStateChanged
attr title "Radio reception state, vector"
vector 167 CampusLikeEnvironment.MiddleDevice0.wlan[11].radio receptionState:vector ETV
attr interpolationmode sample-hold
attr source receptionStateChanged
attr title "Radio reception state, vector"
vector 168 CampusLikeEnvironment.MiddleDevice0.wlan[12].radio receptionState:vector ETV
attr interpolationmode sample-hold
attr source receptionStateChanged
attr title "Radio reception state, vector"
vector 169 CampusLikeEnvironment.MiddleDevice0.wlan[13].radio receptionState:vector ETV
attr interpolationmode sample-hold
attr source receptionStateChanged
attr title "Radio reception state, vector"
vector 170 CampusLikeEnvironment.MiddleDevice1.wlan[0].radio receptionState:vector ETV
attr interpolationmode sample-hold
attr source receptionStateChanged
attr title "Radio reception state, vector"
vector 171 CampusLikeEnvironment.MiddleDevice1.wlan[1].radio receptionState:vector ETV
attr interpolationmode sample-hold
attr source receptionStateChanged
attr title "Radio reception state, vector"
vector 172 CampusLikeEnvironment.MiddleDevice1.wlan[2].radio receptionState:vector ETV
attr interpolationmode sample-hold
attr source receptionStateChanged
attr title "Radio reception state, vector"
vector 173 CampusLikeEnvironment.MiddleDevice1.wlan[3].radio receptionState:vector ETV
attr interpolationmode sample-hold
attr source receptionStateChanged
attr title "Radio reception state, vector"
vector 174 CampusLikeEnvironment.MiddleDevice1.wlan[4].radio receptionState:vector ETV
attr interpolationmode sample-hold
attr source receptionStateChanged
attr title "Radio reception state, vector"
vector 175 CampusLikeEnvironment.MiddleDevice1.wlan[5].radio receptionState:vector ETV
attr interpolationmode sample-hold
attr source receptionStateChanged
attr title "Radio reception state, vector"
vector 176 CampusLikeEnvironment.MiddleDevice1.wlan[6].radio receptionState:vector ETV
attr interpolationmode sample-hold
attr source receptionStateChanged
attr title "Radio reception state, vector"
vector 177 CampusLikeEnvironment.MiddleDevice1.wlan[7].radio receptionState:vector ETV
attr interpolationmode sample-hold
attr source receptionStateChanged
attr title "Radio reception state, vector"
vector 178 CampusLikeEnvironment.MiddleDevice1.wlan[8].radio receptionState:vector ETV
attr interpolationmode sample-hold
attr source receptionStateChanged
attr title "Radio reception state, vector"
vector 179 CampusLikeEnvironment.MiddleDevice1.wlan[9].radio receptionState:vector ETV
attr interpolationmode sample-hold
attr source receptionStateChanged
attr title "Radio reception state, vector"
vector 180 CampusLikeEnvironment.MiddleDevice1.wlan[10].radio receptionState:vector ETV
attr interpolationmode sample-hold
attr source receptionStateChanged
attr title "Radio reception state, vector"
vector 181 CampusLikeEnvironment.MiddleDevice1.wlan[11].radio receptionState:vector ETV
attr interpolationmode sample-hold
attr source receptionStateChanged
attr title "Radio reception state, vector"
vector 182 CampusLikeEnvironment.MiddleDevice1.wlan[12].radio receptionState:vector ETV
attr interpolationmode sample-hold
attr source receptionStateChanged
attr title "Radio reception state, vector"
vector 183 CampusLikeEnvironment.MiddleDevice1.wlan[13].radio receptionState:vector ETV
attr interpolationmode sample-hold
attr source receptionStateChanged
attr title "Radio reception state, vector"
vector 184 CampusLikeEnvironment.MiddleDevice2.wlan[0].radio receptionState:vector ETV
attr interpolationmode sample-hold
attr source receptionStateChanged
attr title "Radio reception state, vector"
vector 185 CampusLikeEnvironment.MiddleDevice2.wlan[1].radio receptionState:vector ETV
attr interpolationmode sample-hold
attr source receptionStateChanged
attr title "Radio reception state, vector"
vector 186 CampusLikeEnvironment.MiddleDevice2.wlan[2].radio receptionState:vector ETV
attr interpolationmode sample-hold
attr source receptionStateChanged
attr title "Radio reception state, vector"
vector 187 CampusLikeEnvironment.MiddleDevice2.wlan[3].radio receptionState:vector ETV
attr interpolationmode sample-hold
attr source receptionStateChanged
attr title "Radio reception state, vector"
vector 188 CampusLikeEnvironment.MiddleDevice2.wlan[4].radio receptionState:vector ETV
attr interpolationmode sample-hold
attr source receptionStateChanged
attr title "Radio reception state, vector"
vector 189 CampusLikeEnvironment.MiddleDevice2.wlan[5].radio receptionState:vector ETV
attr interpolationmode sample-hold
attr source receptionStateChanged
attr title "Radio reception state, vector"
vector 190 CampusLikeEnvironment.MiddleDevice2.wlan[6].radio receptionState:vector ETV
attr interpolationmode sample-hold
attr source receptionStateChanged
attr title "Radio reception state, vector"
vector 191 CampusLikeEnvironment.MiddleDevice2.wlan[7].radio receptionState:vector ETV
attr interpolationmode sample-hold
attr source receptionStateChanged
attr title "Radio reception state, vector"
vector 192 CampusLikeEnvironment.MiddleDevice2.wlan[8].radio receptionState:vector ETV
attr interpolationmode sample-hold
attr source receptionStateChanged
attr title "Radio reception state, vector"
vector 193 CampusLikeEnvironment.MiddleDevice2.wlan[9].radio receptionState:vector ETV
attr interpolationmode sample-hold
attr source receptionStateChanged
attr title "Radio reception state, vector"
vector 194 CampusLikeEnvironment.MiddleDevice2.wlan[10].radio receptionState:vector ETV
attr interpolationmode sample-hold
attr source receptionStateChanged
attr title "Radio reception state, vector"
vector 195 CampusLikeEnvironment.MiddleDevice2.wlan[11].radio receptionState:vector ETV
attr interpolationmode sample-hold
attr source receptionStateChanged
attr title "Radio reception state, vector"
vector 196 CampusLikeEnvironment.MiddleDevice2.wlan[12].radio receptionState:vector ETV
attr interpolationmode sample-hold
attr source receptionStateChanged
attr title "Radio reception state, vector"
vector 197 CampusLikeEnvironment.MiddleDevice2.wlan[13].radio receptionState:vector ETV
attr interpolationmode sample-hold
attr source receptionStateChanged
attr title "Radio reception state, vector"
vector 198 CampusLikeEnvironment.ServerRadio.wlan[0].radio receptionState:vector ETV
attr interpolationmode sample-hold
attr source receptionStateChanged
attr title "Radio reception state, vector"
vector 199 CampusLikeEnvironment.ServerRadio.wlan[1].radio receptionState:vector ETV
attr interpolationmode sample-hold
attr source receptionStateChanged
attr title "Radio reception state, vector"
vector 200 CampusLikeEnvironment.ServerRadio.wlan[2].radio receptionState:vector ETV
attr interpolationmode sample-hold
attr source receptionStateChanged
attr title "Radio reception state, vector"
vector 201 CampusLikeEnvironment.ServerRadio.wlan[3].radio receptionState:vector ETV
attr interpolationmode sample-hold
attr source receptionStateChanged
attr title "Radio reception state, vector"
vector 202 CampusLikeEnvironment.ServerRadio.wlan[4].radio receptionState:vector ETV
attr interpolationmode sample-hold
attr source receptionStateChanged
attr title "Radio reception state, vector"
vector 203 CampusLikeEnvironment.ServerRadio.wlan[5].radio receptionState:vector ETV
attr interpolationmode sample-hold
attr source receptionStateChanged
attr title "Radio reception state, vector"
vector 204 CampusLikeEnvironment.ServerRadio.wlan[6].radio receptionState:vector ETV
attr interpolationmode sample-hold
attr source receptionStateChanged
attr title "Radio reception state, vector"
vector 205 CampusLikeEnvironment.ServerRadio.wlan[7].radio receptionState:vector ETV
attr interpolationmode sample-hold
attr source receptionStateChanged
attr title "Radio reception state, vector"
vector 206 CampusLikeEnvironment.ServerRadio.wlan[8].radio receptionState:vector ETV
attr interpolationmode sample-hold
attr source receptionStateChanged
attr title "Radio reception state, vector"
vector 207 CampusLikeEnvironment.ServerRadio.wlan[9].radio receptionState:vector ETV
attr interpolationmode sample-hold
attr source receptionStateChanged
attr title "Radio reception state, vector"
vector 208 CampusLikeEnvironment.ServerRadio.wlan[10].radio receptionState:vector ETV
attr interpolationmode sample-hold
attr source receptionStateChanged
attr title "Radio reception state, vector"
vector 209 CampusLikeEnvironment.ServerRadio.wlan[11].radio receptionState:vector ETV
attr interpolationmode sample-hold
attr source receptionStateChanged
attr title "Radio reception state, vector"
vector 210 CampusLikeEnvironment.ServerRadio.wlan[12].radio receptionState:vector ETV
attr interpolationmode sample-hold
attr source receptionStateChanged
attr title "Radio reception state, vector"
vector 211 CampusLikeEnvironment.ServerRadio.wlan[13].radio receptionState:vector ETV
attr interpolationmode sample-hold
attr source receptionStateChanged
attr title "Radio reception state, vector"
vector 212 CampusLikeEnvironment.NoiseServer.wlan[0].radio receptionState:vector ETV
attr interpolationmode sample-hold
attr source receptionStateChanged
attr title "Radio reception state, vector"
vector 213 CampusLikeEnvironment.NoiseDevice0.wlan[0].radio receptionState:vector ETV
attr interpolationmode sample-hold
attr source receptionStateChanged
attr title "Radio reception state, vector"
vector 214 CampusLikeEnvironment.NoiseDevice1.wlan[0].radio receptionState:vector ETV
attr interpolationmode sample-hold
attr source receptionStateChanged
attr title "Radio reception state, vector"
vector 215 CampusLikeEnvironment.NoiseDevice2.wlan[0].radio receptionState:vector ETV
attr interpolationmode sample-hold
attr source receptionStateChanged
attr title "Radio reception state, vector"
vector 216 CampusLikeEnvironment.EndDevice0.wlan[0].mac.dcf.recoveryProcedure contentionWindowChanged:vector ETV
attr interpolationmode sample-hold
attr title "contention window, vector"
vector 217 CampusLikeEnvironment.EndDevice0.wlan[1].mac.dcf.recoveryProcedure contentionWindowChanged:vector ETV
attr interpolationmode sample-hold
attr title "contention window, vector"
vector 218 CampusLikeEnvironment.EndDevice1.wlan[0].mac.dcf.recoveryProcedure contentionWindowChanged:vector ETV
attr interpolationmode sample-hold
attr title "contention window, vector"
vector 219 CampusLikeEnvironment.EndDevice1.wlan[1].mac.dcf.recoveryProcedure contentionWindowChanged:vector ETV
attr interpolationmode sample-hold
attr title "contention window, vector"
vector 220 CampusLikeEnvironment.EndDevice2.wlan[0].mac.dcf.recoveryProcedure contentionWindowChanged:vector ETV
attr interpolationmode sample-hold
attr title "contention window, vector"
vector 221 CampusLikeEnvironment.EndDevice2.wlan[1].mac.dcf.recoveryProcedure contentionWindowChanged:vector ETV
attr interpolationmode sample-hold
attr title "contention window, vector"
vector 222 CampusLikeEnvironment.EndDevice3.wlan[0].mac.dcf.recoveryProcedure contentionWindowChanged:vector ETV
attr interpolationmode sample-hold
attr title "contention window, vector"
vector 223 CampusLikeEnvironment.EndDevice3.wlan[1].mac.dcf.recoveryProcedure contentionWindowChanged:vector ETV
attr interpolationmode sample-hold
attr title "contention window, vector"
vector 224 CampusLikeEnvironment.EndDevice4.wlan[0].mac.dcf.recoveryProcedure contentionWindowChanged:vector ETV
attr interpolationmode sample-hold
attr title "contention window, vector"
vector 225 CampusLikeEnvironment.EndDevice4.wlan[1].mac.dcf.recoveryProcedure contentionWindowChanged:vector ETV
attr interpolationmode sample-hold
attr title "contention window, vector"
vector 226 CampusLikeEnvironment.EndDevice5.wlan[0].mac.dcf.recoveryProcedure contentionWindowChanged:vector ETV
attr interpolationmode sample-hold
attr title "contention window, vector"
vector 227 CampusLikeEnvironment.EndDevice5.wlan[1].mac.dcf.recoveryProcedure contentionWindowChanged:vector ETV
attr interpolationmode sample-hold
attr title "contention window, vector"
vector 228 CampusLikeEnvironment.MiddleDevice0.wlan[0].mac.dcf.recoveryProcedure contentionWindowChanged:vector ETV
attr interpolationmode sample-hold
attr title "contention window, vector"
vector 229 CampusLikeEnvironment.MiddleDevice0.wlan[1].mac.dcf.recoveryProcedure contentionWindowChanged:vector ETV
attr interpolationmode sample-hold
attr title "contention window, vector"
vector 230 CampusLikeEnvironment.MiddleDevice0.wlan[2].mac.dcf.recoveryProcedure contentionWindowChanged:vector ETV
attr interpolationmode sample-hold
attr title "contention window, vector"
vector 231 CampusLikeEnvironment.MiddleDevice0.wlan[3].mac.dcf.recoveryProcedure contentionWindowChanged:vector ETV
attr interpolationmode sample-hold
attr title "contention window, vector"
vector 232 CampusLikeEnvironment.MiddleDevice0.wlan[4].mac.dcf.recoveryProcedure contentionWindowChanged:vector ETV
attr interpolationmode sample-hold
attr title "contention window, vector"
vector 233 CampusLikeEnvironment.MiddleDevice0.wlan[5].mac.dcf.recoveryProcedure contentionWindowChanged:vector ETV
attr interpolationmode sample-hold
attr title "contention window, vector"
vector 234 CampusLikeEnvironment.MiddleDevice0.wlan[6].mac.dcf.recoveryProcedure contentionWindowChanged:vector ETV
attr interpolationmode sample-hold
attr title "contention window, vector"
vector 235 CampusLikeEnvironment.MiddleDevice0.wlan[7].mac.dcf.recoveryProcedure contentionWindowChanged:vector ETV
attr interpolationmode sample-hold
attr title "contention window, vector"
vector 236 CampusLikeEnvironment.MiddleDevice0.wlan[8].mac.dcf.recoveryProcedure contentionWindowChanged:vector ETV
attr interpolationmode sample-hold
attr title "contention window, vector"
vector 237 CampusLikeEnvironment.MiddleDevice0.wlan[9].mac.dcf.recoveryProcedure contentionWindowChanged:vector ETV
attr interpolationmode sample-hold
attr title "contention window, vector"
vector 238 CampusLikeEnvironment.MiddleDevice0.wlan[10].mac.dcf.recoveryProcedure contentionWindowChanged:vector ETV
attr interpolationmode sample-hold
attr title "contention window, vector"
vector 239 CampusLikeEnvironment.MiddleDevice0.wlan[11].mac.dcf.recoveryProcedure contentionWindowChanged:vector ETV
attr interpolationmode sample-hold
attr title "contention window, vector"
vector 240 CampusLikeEnvironment.MiddleDevice0.wlan[12].mac.dcf.recoveryProcedure contentionWindowChanged:vector ETV
attr interpolationmode sample-hold
attr title "contention window, vector"
vector 241 CampusLikeEnvironment.MiddleDevice0.wlan[13].mac.dcf.recoveryProcedure contentionWindowChanged:vector ETV
attr interpolationmode sample-hold
attr title "contention window, vector"
vector 242 CampusLikeEnvironment.MiddleDevice1.wlan[0].mac.dcf.recoveryProcedure contentionWindowChanged:vector ETV
attr interpolationmode sample-hold
attr title "contention window, vector"
vector 243 CampusLikeEnvironment.MiddleDevice1.wlan[1].mac.dcf.recoveryProcedure contentionWindowChanged:vector ETV
attr interpolationmode sample-hold
attr title "contention window, vector"
vector 244 CampusLikeEnvironment.MiddleDevice1.wlan[2].mac.dcf.recoveryProcedure contentionWindowChanged:vector ETV
attr interpolationmode sample-hold
attr title "contention window, vector"
vector 245 CampusLikeEnvironment.MiddleDevice1.wlan[3].mac.dcf.recoveryProcedure contentionWindowChanged:vector ETV
attr interpolationmode sample-hold
attr title "contention window, vector"
vector 246 CampusLikeEnvironment.MiddleDevice1.wlan[4].mac.dcf.recoveryProcedure contentionWindowChanged:vector ETV
attr interpolationmode sample-hold
attr title "contention window, vector"
vector 247 CampusLikeEnvironment.MiddleDevice1.wlan[5].mac.dcf.recoveryProcedure contentionWindowChanged:vector ETV
attr interpolationmode sample-hold
attr title "contention window, vector"
vector 248 CampusLikeEnvironment.MiddleDevice1.wlan[6].mac.dcf.recoveryProcedure contentionWindowChanged:vector ETV
attr interpolationmode sample-hold
attr title "contention window, vector"
vector 249 CampusLikeEnvironment.MiddleDevice1.wlan[7].mac.dcf.recoveryProcedure contentionWindowChanged:vector ETV
attr interpolationmode sample-hold
attr title "contention window, vector"
vector 250 CampusLikeEnvironment.MiddleDevice1.wlan[8].mac.dcf.recoveryProcedure contentionWindowChanged:vector ETV
attr interpolationmode sample-hold
attr title "contention window, vector"
vector 251 CampusLikeEnvironment.MiddleDevice1.wlan[9].mac.dcf.recoveryProcedure contentionWindowChanged:vector ETV
attr interpolationmode sample-hold
attr title "contention window, vector"
vector 252 CampusLikeEnvironment.MiddleDevice1.wlan[10].mac.dcf.recoveryProcedure contentionWindowChanged:vector ETV
attr interpolationmode sample-hold
attr title "contention window, vector"
vector 253 CampusLikeEnvironment.MiddleDevice1.wlan[11].mac.dcf.recoveryProcedure contentionWindowChanged:vector ETV
attr interpolationmode sample-hold
attr title "contention window, vector"
vector 254 CampusLikeEnvironment.MiddleDevice1.wlan[12].mac.dcf.recoveryProcedure contentionWindowChanged:vector ETV
attr interpolationmode sample-hold
attr title "contention window, vector"
vector 255 CampusLikeEnvironment.MiddleDevice1.wlan[13].mac.dcf.recoveryProcedure contentionWindowChanged:vector ETV
attr interpolationmode sample-hold
attr title "contention window, vector"
vector 256 CampusLikeEnvironment.MiddleDevice2.wlan[0].mac.dcf.recoveryProcedure contentionWindowChanged:vector ETV
attr interpolationmode sample-hold
attr title "contention window, vector"
vector 257 CampusLikeEnvironment.MiddleDevice2.wlan[1].mac.dcf.recoveryProcedure contentionWindowChanged:vector ETV
attr interpolationmode sample-hold
attr title "contention window, vector"
vector 258 CampusLikeEnvironment.MiddleDevice2.wlan[2].mac.dcf.recoveryProcedure contentionWindowChanged:vector ETV
attr interpolationmode sample-hold
attr title "contention window, vector"
vector 259 CampusLikeEnvironment.MiddleDevice2.wlan[3].mac.dcf.recoveryProcedure contentionWindowChanged:vector ETV
attr interpolationmode sample-hold
attr title "contention window, vector"
vector 260 CampusLikeEnvironment.MiddleDevice2.wlan[4].mac.dcf.recoveryProcedure contentionWindowChanged:vector ETV
attr interpolationmode sample-hold
attr title "contention window, vector"
vector 261 CampusLikeEnvironment.MiddleDevice2.wlan[5].mac.dcf.recoveryProcedure contentionWindowChanged:vector ETV
attr interpolationmode sample-hold
attr title "contention window, vector"
vector 262 CampusLikeEnvironment.MiddleDevice2.wlan[6].mac.dcf.recoveryProcedure contentionWindowChanged:vector ETV
attr interpolationmode sample-hold
attr title "contention window, vector"
vector 263 CampusLikeEnvironment.MiddleDevice2.wlan[7].mac.dcf.recoveryProcedure contentionWindowChanged:vector ETV
attr interpolationmode sample-hold
attr title "contention window, vector"
vector 264 CampusLikeEnvironment.MiddleDevice2.wlan[8].mac.dcf.recoveryProcedure contentionWindowChanged:vector ETV
attr interpolationmode sample-hold
attr title "contention window, vector"
vector 265 CampusLikeEnvironment.MiddleDevice2.wlan[9].mac.dcf.recoveryProcedure contentionWindowChanged:vector ETV
attr interpolationmode sample-hold
attr title "contention window, vector"
vector 266 CampusLikeEnvironment.MiddleDevice2.wlan[10].mac.dcf.recoveryProcedure contentionWindowChanged:vector ETV
attr interpolationmode sample-hold
attr title "contention window, vector"
vector 267 CampusLikeEnvironment.MiddleDevice2.wlan[11].mac.dcf.recoveryProcedure contentionWindowChanged:vector ETV
attr interpolationmode sample-hold
attr title "contention window, vector"
vector 268 CampusLikeEnvironment.MiddleDevice2.wlan[12].mac.dcf.recoveryProcedure contentionWindowChanged:vector ETV
attr interpolationmode sample-hold
attr title "contention window, vector"
vector 269 CampusLikeEnvironment.MiddleDevice2.wlan[13].mac.dcf.recoveryProcedure contentionWindowChanged:vector ETV
attr interpolationmode sample-hold
attr title "contention window, vector"
vector 270 CampusLikeEnvironment.ServerRadio.wlan[0].mac.dcf.recoveryProcedure contentionWindowChanged:vector ETV
attr interpolationmode sample-hold
attr title "contention window, vector"
vector 271 CampusLikeEnvironment.ServerRadio.wlan[1].mac.dcf.recoveryProcedure contentionWindowChanged:vector ETV
attr interpolationmode sample-hold
attr title "contention window, vector"
vector 272 CampusLikeEnvironment.ServerRadio.wlan[2].mac.dcf.recoveryProcedure contentionWindowChanged:vector ETV
attr interpolationmode sample-hold
attr title "contention window, vector"
vector 273 CampusLikeEnvironment.ServerRadio.wlan[3].mac.dcf.recoveryProcedure contentionWindowChanged:vector ETV
attr interpolationmode sample-hold
attr title "contention window, vector"
vector 274 CampusLikeEnvironment.ServerRadio.wlan[4].mac.dcf.recoveryProcedure contentionWindowChanged:vector ETV
attr interpolationmode sample-hold
attr title "contention window, vector"
vector 275 CampusLikeEnvironment.ServerRadio.wlan[5].mac.dcf.recoveryProcedure contentionWindowChanged:vector ETV
attr interpolationmode sample-hold
attr title "contention window, vector"
vector 276 CampusLikeEnvironment.ServerRadio.wlan[6].mac.dcf.recoveryProcedure contentionWindowChanged:vector ETV
attr interpolationmode sample-hold
attr title "contention window, vector"
vector 277 CampusLikeEnvironment.ServerRadio.wlan[7].mac.dcf.recoveryProcedure contentionWindowChanged:vector ETV
attr interpolationmode sample-hold
attr title "contention window, vector"
vector 278 CampusLikeEnvironment.ServerRadio.wlan[8].mac.dcf.recoveryProcedure contentionWindowChanged:vector ETV
attr interpolationmode sample-hold
attr title "contention window, vector"
vector 279 CampusLikeEnvironment.ServerRadio.wlan[9].mac.dcf.recoveryProcedure contentionWindowChanged:vector ETV
attr interpolationmode sample-hold
attr title "contention window, vector"
vector 280 CampusLikeEnvironment.ServerRadio.wlan[10].mac.dcf.recoveryProcedure contentionWindowChanged:vector ETV
attr interpolationmode sample-hold
attr title "contention window, vector"
vector 281 CampusLikeEnvironment.ServerRadio.wlan[11].mac.dcf.recoveryProcedure contentionWindowChanged:vector ETV
attr interpolationmode sample-hold
attr title "contention window, vector"
vector 282 CampusLikeEnvironment.ServerRadio.wlan[12].mac.dcf.recoveryProcedure contentionWindowChanged:vector ETV
attr interpolationmode sample-hold
attr title "contention window, vector"
vector 283 CampusLikeEnvironment.ServerRadio.wlan[13].mac.dcf.recoveryProcedure contentionWindowChanged:vector ETV
attr interpolationmode sample-hold
attr title "contention window, vector"
vector 284 CampusLikeEnvironment.NoiseServer.wlan[0].mac.dcf.recoveryProcedure contentionWindowChanged:vector ETV
attr interpolationmode sample-hold
attr title "contention window, vector"
vector 285 CampusLikeEnvironment.NoiseDevice0.wlan[0].mac.dcf.recoveryProcedure contentionWindowChanged:vector ETV
attr interpolationmode sample-hold
attr title "contention window, vector"
vector 286 CampusLikeEnvironment.NoiseDevice1.wlan[0].mac.dcf.recoveryProcedure contentionWindowChanged:vector ETV
attr interpolationmode sample-hold
attr title "contention window, vector"
vector 287 CampusLikeEnvironment.NoiseDevice2.wlan[0].mac.dcf.recoveryProcedure contentionWindowChanged:vector ETV
attr interpolationmode sample-hold
attr title "contention window, vector"
vector 288 CampusLikeEnvironment.NoiseDevice2.app[0] packetSent:vector(packetBytes) ETV
attr interpolationmode none
attr source packetSent
attr title "packets sent, vector(packetBytes)"
vector 289 CampusLikeEnvironment.NoiseDevice2.udp packetSent:vector(packetBytes) ETV
attr interpolationmode none
attr source packetSent
attr title "packets sent, vector(packetBytes)"
vector 290 CampusLikeEnvironment.NoiseDevice2.wlan[0].mac packetReceivedFromUpper:vector(packetBytes) ETV
attr interpolationmode none
attr title "packets received from upper layer, vector(packetBytes)"
vector 291 CampusLikeEnvironment.NoiseDevice2.wlan[0].mac.dcf.channelAccess.pendingQueue packetPushed:vector(packetBytes) ETV
attr interpolationmode none
attr title "packet pushed, vector(packetBytes)"
vector 292 CampusLikeEnvironment.NoiseDevice2.wlan[0].mac.dcf.channelAccess.pendingQueue queueLength:vector ETV
attr interpolationmode sample-hold
attr source "count(packetPushed) - count(packetPopped) - count(packetRemoved) - count(packetDropped)"
attr title "queue length, vector"
vector 293 CampusLikeEnvironment.NoiseDevice2.wlan[0].mac.dcf.channelAccess.contention backoffPeriodGenerated:vector ETV
attr interpolationmode none
attr title "backoff periods, vector"
vector 294 CampusLikeEnvironment.NoiseDevice2.wlan[0].mac.dcf.channelAccess.contention backoffActive:vector ETV
attr interpolationmode sample-hold
attr source count(backoffStarted)-count(backoffStopped)
attr title "backoff active, vector"
vector 295 CampusLikeEnvironment.NoiseDevice1.app[0] packetSent:vector(packetBytes) ETV
attr interpolationmode none
attr source packetSent
attr title "packets sent, vector(packetBytes)"
vector 296 CampusLikeEnvironment.NoiseDevice1.udp packetSent:vector(packetBytes) ETV
attr interpolationmode none
attr source packetSent
attr title "packets sent, vector(packetBytes)"
vector 297 CampusLikeEnvironment.NoiseDevice1.wlan[0].mac packetReceivedFromUpper:vector(packetBytes) ETV
attr interpolationmode none
attr title "packets received from upper layer, vector(packetBytes)"
vector 298 CampusLikeEnvironment.NoiseDevice1.wlan[0].mac.dcf.channelAccess.pendingQueue packetPushed:vector(packetBytes) ETV
attr interpolationmode none
attr title "packet pushed, vector(packetBytes)"
vector 299 CampusLikeEnvironment.NoiseDevice1.wlan[0].mac.dcf.channelAccess.pendingQueue queueLength:vector ETV
attr interpolationmode sample-hold
attr source "count(packetPushed) - count(packetPopped) - count(packetRemoved) - count(packetDropped)"
attr title "queue length, vector"
vector 300 CampusLikeEnvironment.NoiseDevice1.wlan[0].mac.dcf.channelAccess.contention backoffPeriodGenerated:vector ETV
attr interpolationmode none
attr title "backoff periods, vector"
vector 301 CampusLikeEnvironment.NoiseDevice1.wlan[0].mac.dcf.channelAccess.contention backoffActive:vector ETV
attr interpolationmode sample-hold
attr source count(backoffStarted)-count(backoffStopped)
attr title "backoff active, vector"
vector 302 CampusLikeEnvironment.NoiseDevice0.app[0] packetSent:vector(packetBytes) ETV
attr interpolationmode none
attr source packetSent
attr title "packets sent, vector(packetBytes)"
vector 303 CampusLikeEnvironment.NoiseDevice0.udp packetSent:vector(packetBytes) ETV
attr interpolationmode none
attr source packetSent
attr title "packets sent, vector(packetBytes)"
vector 304 CampusLikeEnvironment.NoiseDevice0.wlan[0].mac packetReceivedFromUpper:vector(packetBytes) ETV
attr interpolationmode none
attr title "packets received from upper layer, vector(packetBytes)"
vector 305 CampusLikeEnvironment.NoiseDevice0.wlan[0].mac.dcf.channelAccess.pendingQueue packetPushed:vector(packetBytes) ETV
attr interpolationmode none
attr title "packet pushed, vector(packetBytes)"
vector 306 CampusLikeEnvironment.NoiseDevice0.wlan[0].mac.dcf.channelAccess.pendingQueue queueLength:vector ETV
attr interpolationmode sample-hold
attr source "count(packetPushed) - count(packetPopped) - count(packetRemoved) - count(packetDropped)"
attr title "queue length, vector"
vector 307 CampusLikeEnvironment.NoiseDevice0.wlan[0].mac.dcf.channelAccess.contention backoffPeriodGenerated:vector ETV
attr interpolationmode none
attr title "backoff periods, vector"
vector 308 CampusLikeEnvironment.NoiseDevice0.wlan[0].mac.dcf.channelAccess.contention backoffActive:vector ETV
attr interpolationmode sample-hold
attr source count(backoffStarted)-count(backoffStopped)
attr title "backoff active, vector"
vector 309 CampusLikeEnvironment.NoiseDevice0.wlan[0].mac.dcf.channelAccess.pendingQueue packetPopped:vector(packetBytes) ETV
attr interpolationmode none
attr title "packet popped, vector(packetBytes)"
vector 310 CampusLikeEnvironment.NoiseDevice0.wlan[0].mac.dcf.channelAccess.pendingQueue queueingTime:vector ETV
attr interpolationmode none
attr source queueingTime(packetPopped)
attr title "queueing times, vector"
attr unit s
vector 311 CampusLikeEnvironment.NoiseDevice0.wlan[0].mac.dcf.channelAccess.inProgressFrames queueLength:vector ETV
attr interpolationmode sample-hold
attr source "count(packetEnqueued) - count(packetDequeued)"
attr title "queue length, vector"
vector 312 CampusLikeEnvironment.NoiseDevice0.wlan[0].mac.dcf datarateSelected:vector ETV
attr interpolationmode none
attr title "datarates selected, vector"
vector 313 CampusLikeEnvironment.NoiseDevice0.wlan[0].mac packetSentToLower:vector(packetBytes) ETV
attr interpolationmode none
attr title "packets sent to lower layer, vector(packetBytes)"
vector 314 CampusLikeEnvironment.NoiseDevice0.wlan[0].mac.dcf frameSequenceActive:vector ETV
attr interpolationmode sample-hold
attr source count(frameSequenceStarted)-count(frameSequenceFinished)
attr title "frame sequence active, vector"
vector 315 CampusLikeEnvironment.NoiseDevice0.wlan[0].radio transmissionState:vector ETV
attr interpolationmode sample-hold
attr source transmissionStateChanged
attr title "Radio transmission state, vector"
vector 316 CampusLikeEnvironment.NoiseDevice2.wlan[0].mac.dcf.channelAccess.pendingQueue packetPopped:vector(packetBytes) ETV
attr interpolationmode none
attr title "packet popped, vector(packetBytes)"
vector 317 CampusLikeEnvironment.NoiseDevice2.wlan[0].mac.dcf.channelAccess.pendingQueue queueingTime:vector ETV
attr interpolationmode none
attr source queueingTime(packetPopped)
attr title "queueing times, vector"
attr unit s
vector 318 CampusLikeEnvironment.NoiseDevice2.wlan[0].mac.dcf.channelAccess.inProgressFrames queueLength:vector ETV
attr interpolationmode sample-hold
attr source "count(packetEnqueued) - count(packetDequeued)"
attr title "queue length, vector"
vector 319 CampusLikeEnvironment.NoiseDevice2.wlan[0].mac.dcf datarateSelected:vector ETV
attr interpolationmode none
attr title "datarates selected, vector"
vector 320 CampusLikeEnvironment.NoiseDevice2.wlan[0].mac packetSentToLower:vector(packetBytes) ETV
attr interpolationmode none
attr title "packets sent to lower layer, vector(packetBytes)"
vector 321 CampusLikeEnvironment.NoiseDevice2.wlan[0].mac.dcf frameSequenceActive:vector ETV
attr interpolationmode sample-hold
attr source count(frameSequenceStarted)-count(frameSequenceFinished)
attr title "frame sequence active, vector"
vector 322 CampusLikeEnvironment.NoiseDevice2.wlan[0].radio transmissionState:vector ETV
attr interpolationmode sample-hold
attr source transmissionStateChanged
attr title "Radio transmission state, vector"
vector 323 CampusLikeEnvironment.NoiseDevice1.wlan[0].mac.dcf.channelAccess.pendingQueue packetPopped:vector(packetBytes) ETV
attr interpolationmode none
attr title "packet popped, vector(packetBytes)"
vector 324 CampusLikeEnvironment.NoiseDevice1.wlan[0].mac.dcf.channelAccess.pendingQueue queueingTime:vector ETV
attr interpolationmode none
attr source queueingTime(packetPopped)
attr title "queueing times, vector"
attr unit s
vector 325 CampusLikeEnvironment.NoiseDevice1.wlan[0].mac.dcf.channelAccess.inProgressFrames queueLength:vector ETV
attr interpolationmode sample-hold
attr source "count(packetEnqueued) - count(packetDequeued)"
attr title "queue length, vector"
vector 326 CampusLikeEnvironment.NoiseDevice1.wlan[0].mac.dcf datarateSelected:vector ETV
attr interpolationmode none
attr title "datarates selected, vector"
vector 327 CampusLikeEnvironment.NoiseDevice1.wlan[0].mac packetSentToLower:vector(packetBytes) ETV
attr interpolationmode none
attr title "packets sent to lower layer, vector(packetBytes)"
vector 328 CampusLikeEnvironment.NoiseDevice1.wlan[0].mac.dcf frameSequenceActive:vector ETV
attr interpolationmode sample-hold
attr source count(frameSequenceStarted)-count(frameSequenceFinished)
attr title "frame sequence active, vector"
vector 329 CampusLikeEnvironment.NoiseDevice1.wlan[0].radio transmissionState:vector ETV
attr interpolationmode sample-hold
attr source transmissionStateChanged
attr title "Radio transmission state, vector"
vector 330 CampusLikeEnvironment.NoiseDevice0.wlan[0].mac.dcf packetSentToPeer:vector(packetBytes) ETV
attr interpolationmode none
attr title "packets sent, vector(packetBytes)"
vector 331 CampusLikeEnvironment.NoiseDevice0.wlan[0].mac.dcf packetSentToPeerUnicast:vector(packetBytes) ETV
attr interpolationmode none
attr source ieee80211Unicast(packetSentToPeer)
attr title "packets sent: unicast, vector(packetBytes)"
vector 332 CampusLikeEnvironment.NoiseDevice0.wlan[0].mac.dcf packetSentToPeerWithoutRetry:vector(packetBytes) ETV
attr interpolationmode none
attr source ieee80211NotRetry(packetSentToPeer)
attr title "packets sent: without retry, vector(packetBytes)"
vector 333 CampusLikeEnvironment.NoiseDevice0.wlan[0].mac.rx nav:vector ETV
attr interpolationmode linear
attr source navChanged
attr title "network allocation vector, vector"
vector 334 CampusLikeEnvironment.EndDevice0.wlan[0].mac packetReceivedFromLower:vector(packetBytes) ETV
attr interpolationmode none
attr title "packets received from lower layer, vector(packetBytes)"
vector 335 CampusLikeEnvironment.EndDevice0.wlan[0].mac packetDrop:vector(packetBytes) ETV
attr interpolationmode none
attr source packetDropped
attr title "packet drops, vector(packetBytes)"
vector 336 CampusLikeEnvironment.EndDevice0.wlan[0].mac packetDropIncorrectlyReceived:vector(packetBytes) ETV
attr interpolationmode none
attr source packetDropReasonIsIncorrectlyReceived(packetDropped)
attr title "packet drops: incorrectly received, vector(packetBytes)"
vector 337 CampusLikeEnvironment.EndDevice0.wlan[1].mac packetReceivedFromLower:vector(packetBytes) ETV
attr interpolationmode none
attr title "packets received from lower layer, vector(packetBytes)"
vector 338 CampusLikeEnvironment.EndDevice0.wlan[1].mac packetDrop:vector(packetBytes) ETV
attr interpolationmode none
attr source packetDropped
attr title "packet drops, vector(packetBytes)"
vector 339 CampusLikeEnvironment.EndDevice0.wlan[1].mac packetDropIncorrectlyReceived:vector(packetBytes) ETV
attr interpolationmode none
attr source packetDropReasonIsIncorrectlyReceived(packetDropped)
attr title "packet drops: incorrectly received, vector(packetBytes)"
vector 340 CampusLikeEnvironment.MiddleDevice2.wlan[0].mac packetReceivedFromLower:vector(packetBytes) ETV
attr interpolationmode none
attr title "packets received from lower layer, vector(packetBytes)"
vector 341 CampusLikeEnvironment.MiddleDevice2.wlan[0].mac packetDrop:vector(packetBytes) ETV
attr interpolationmode none
attr source packetDropped
attr title "packet drops, vector(packetBytes)"
vector 342 CampusLikeEnvironment.MiddleDevice2.wlan[0].mac packetDropIncorrectlyReceived:vector(packetBytes) ETV
attr interpolationmode none
attr source packetDropReasonIsIncorrectlyReceived(packetDropped)
attr title "packet drops: incorrectly received, vector(packetBytes)"
vector 343 CampusLikeEnvironment.EndDevice5.wlan[1].mac packetReceivedFromLower:vector(packetBytes) ETV
attr interpolationmode none
attr title "packets received from lower layer, vector(packetBytes)"
vector 344 CampusLikeEnvironment.EndDevice5.wlan[1].mac packetDrop:vector(packetBytes) ETV
attr interpolationmode none
attr source packetDropped
attr title "packet drops, vector(packetBytes)"
vector 345 CampusLikeEnvironment.EndDevice5.wlan[1].mac packetDropIncorrectlyReceived:vector(packetBytes) ETV
attr interpolationmode none
attr source packetDropReasonIsIncorrectlyReceived(packetDropped)
attr title "packet drops: incorrectly received, vector(packetBytes)"
vector 346 CampusLikeEnvironment.NoiseDevice2.wlan[0].mac.dcf packetSentToPeer:vector(packetBytes) ETV
attr interpolationmode none
attr title "packets sent, vector(packetBytes)"
vector 347 CampusLikeEnvironment.NoiseDevice2.wlan[0].mac.dcf packetSentToPeerUnicast:vector(packetBytes) ETV
attr interpolationmode none
attr source ieee80211Unicast(packetSentToPeer)
attr title "packets sent: unicast, vector(packetBytes)"
vector 348 CampusLikeEnvironment.NoiseDevice2.wlan[0].mac.dcf packetSentToPeerWithoutRetry:vector(packetBytes) ETV
attr interpolationmode none
attr source ieee80211NotRetry(packetSentToPeer)
attr title "packets sent: without retry, vector(packetBytes)"
vector 349 CampusLikeEnvironment.NoiseDevice2.wlan[0].mac.rx nav:vector ETV
attr interpolationmode linear
attr source navChanged
attr title "network allocation vector, vector"
vector 350 CampusLikeEnvironment.EndDevice2.wlan[1].mac packetReceivedFromLower:vector(packetBytes) ETV
attr interpolationmode none
attr title "packets received from lower layer, vector(packetBytes)"
vector 351 CampusLikeEnvironment.EndDevice2.wlan[1].mac packetDrop:vector(packetBytes) ETV
attr interpolationmode none
attr source packetDropped
attr title "packet drops, vector(packetBytes)"
vector 352 CampusLikeEnvironment.EndDevice2.wlan[1].mac packetDropIncorrectlyReceived:vector(packetBytes) ETV
attr interpolationmode none
attr source packetDropReasonIsIncorrectlyReceived(packetDropped)
attr title "packet drops: incorrectly received, vector(packetBytes)"
vector 353 CampusLikeEnvironment.EndDevice4.wlan[1].mac packetReceivedFromLower:vector(packetBytes) ETV
attr interpolationmode none
attr title "packets received from lower layer, vector(packetBytes)"
vector 354 CampusLikeEnvironment.EndDevice4.wlan[1].mac packetDrop:vector(packetBytes) ETV
attr interpolationmode none
attr source packetDropped
attr title "packet drops, vector(packetBytes)"
vector 355 CampusLikeEnvironment.EndDevice4.wlan[1].mac packetDropIncorrectlyReceived:vector(packetBytes) ETV
attr interpolationmode none
attr source packetDropReasonIsIncorrectlyReceived(packetDropped)
attr title "packet drops: incorrectly received, vector(packetBytes)"
vector 356 CampusLikeEnvironment.MiddleDevice0.wlan[0].mac packetReceivedFromLower:vector(packetBytes) ETV
attr interpolationmode none
attr title "packets received from lower layer, vector(packetBytes)"
vector 357 CampusLikeEnvironment.MiddleDevice0.wlan[0].mac packetDrop:vector(packetBytes) ETV
attr interpolationmode none
attr source packetDropped
attr title "packet drops, vector(packetBytes)"
vector 358 CampusLikeEnvironment.MiddleDevice0.wlan[0].mac packetDropIncorrectlyReceived:vector(packetBytes) ETV
attr interpolationmode none
attr source packetDropReasonIsIncorrectlyReceived(packetDropped)
attr title "packet drops: incorrectly received, vector(packetBytes)"
vector 359 CampusLikeEnvironment.NoiseDevice1.wlan[0].mac.dcf packetSentToPeer:vector(packetBytes) ETV
attr interpolationmode none
attr title "packets sent, vector(packetBytes)"
vector 360 CampusLikeEnvironment.NoiseDevice1.wlan[0].mac.dcf packetSentToPeerUnicast:vector(packetBytes) ETV
attr interpolationmode none
attr source ieee80211Unicast(packetSentToPeer)
attr title "packets sent: unicast, vector(packetBytes)"
vector 361 CampusLikeEnvironment.NoiseDevice1.wlan[0].mac.dcf packetSentToPeerWithoutRetry:vector(packetBytes) ETV
attr interpolationmode none
attr source ieee80211NotRetry(packetSentToPeer)
attr title "packets sent: without retry, vector(packetBytes)"
vector 362 CampusLikeEnvironment.NoiseDevice1.wlan[0].mac.rx nav:vector ETV
attr interpolationmode linear
attr source navChanged
attr title "network allocation vector, vector"
vector 363 CampusLikeEnvironment.MiddleDevice1.wlan[0].mac packetReceivedFromLower:vector(packetBytes) ETV
attr interpolationmode none
attr title "packets received from lower layer, vector(packetBytes)"
vector 364 CampusLikeEnvironment.MiddleDevice1.wlan[0].mac packetDrop:vector(packetBytes) ETV
attr interpolationmode none
attr source packetDropped
attr title "packet drops, vector(packetBytes)"
vector 365 CampusLikeEnvironment.MiddleDevice1.wlan[0].mac packetDropIncorrectlyReceived:vector(packetBytes) ETV
attr interpolationmode none
attr source packetDropReasonIsIncorrectlyReceived(packetDropped)
attr title "packet drops: incorrectly received, vector(packetBytes)"
vector 366 CampusLikeEnvironment.NoiseDevice1.wlan[0].mac.dcf packetSentToPeerWithRetry:vector(packetBytes) ETV
attr interpolationmode none
attr source ieee80211Retry(packetSentToPeer)
attr title "packets sent: with retry, vector(packetBytes)"
vector 367 CampusLikeEnvironment.EndDevice2.wlan[1].mac.rx nav:vector ETV
attr interpolationmode linear
attr source navChanged
attr title "network allocation vector, vector"
vector 368 CampusLikeEnvironment.EndDevice2.wlan[1].mac.dcf packetDrop:vector(packetBytes) ETV
attr interpolationmode none
attr source packetDropped
attr title "packet drops, vector(packetBytes)"
vector 369 CampusLikeEnvironment.EndDevice2.wlan[1].mac.dcf packetDropNotAddressedToUs:vector(packetBytes) ETV
attr interpolationmode none
attr source packetDropReasonIsNotAddressedToUs(packetDropped)
attr title "packet drops: not addressed to us, vector(packetBytes)"
vector 370 CampusLikeEnvironment.EndDevice2.wlan[1].mac packetDropNotAddressedToUs:vector(packetBytes) ETV
attr interpolationmode none
attr source packetDropReasonIsNotAddressedToUs(packetDropped)
attr title "packet drops: not addressed to us, vector(packetBytes)"
vector 371 CampusLikeEnvironment.NoiseDevice0.wlan[0].mac.dcf packetSentToPeerWithRetry:vector(packetBytes) ETV
attr interpolationmode none
attr source ieee80211Retry(packetSentToPeer)
attr title "packets sent: with retry, vector(packetBytes)"
vector 372 CampusLikeEnvironment.NoiseDevice2.wlan[0].mac.dcf packetSentToPeerWithRetry:vector(packetBytes) ETV
attr interpolationmode none
attr source ieee80211Retry(packetSentToPeer)
attr title "packets sent: with retry, vector(packetBytes)"
vector 373 CampusLikeEnvironment.EndDevice4.wlan[1].mac.rx nav:vector ETV
attr interpolationmode linear
attr source navChanged
attr title "network allocation vector, vector"
vector 374 CampusLikeEnvironment.EndDevice4.wlan[1].mac.dcf packetDrop:vector(packetBytes) ETV
attr interpolationmode none
attr source packetDropped
attr title "packet drops, vector(packetBytes)"
vector 375 CampusLikeEnvironment.EndDevice4.wlan[1].mac.dcf packetDropNotAddressedToUs:vector(packetBytes) ETV
attr interpolationmode none
attr source packetDropReasonIsNotAddressedToUs(packetDropped)
attr title "packet drops: not addressed to us, vector(packetBytes)"
vector 376 CampusLikeEnvironment.EndDevice4.wlan[1].mac packetDropNotAddressedToUs:vector(packetBytes) ETV
attr interpolationmode none
attr source packetDropReasonIsNotAddressedToUs(packetDropped)
attr title "packet drops: not addressed to us, vector(packetBytes)"
vector 377 CampusLikeEnvironment.MiddleDevice0.wlan[0].mac.dcf packetReceivedFromPeer:vector(packetBytes) ETV
attr interpolationmode none
attr title "packets received, vector(packetBytes)"
vector 378 CampusLikeEnvironment.MiddleDevice0.wlan[0].mac.dcf packetReceivedFromPeerUnicast:vector(packetBytes) ETV
attr interpolationmode none
attr source ieee80211Unicast(packetReceivedFromPeer)
attr title "packets received: unicast, vector(packetBytes)"
vector 379 CampusLikeEnvironment.MiddleDevice0.wlan[0].mac.dcf packetReceivedFromPeerWithRetry:vector(packetBytes) ETV
attr interpolationmode none
attr source ieee80211Retry(packetReceivedFromPeer)
attr title "packets received: with retry, vector(packetBytes)"
vector 380 CampusLikeEnvironment.MiddleDevice0.wlan[0].mac.dcf datarateSelected:vector ETV
attr interpolationmode none
attr title "datarates selected, vector"
vector 381 CampusLikeEnvironment.MiddleDevice0.wlan[0].mac packetSentToUpper:vector(packetBytes) ETV
attr interpolationmode none
attr title "packets sent to upper layer, vector(packetBytes)"
vector 382 CampusLikeEnvironment.MiddleDevice0.wlan[0].mac packetReceivedFromUpper:vector(packetBytes) ETV
attr interpolationmode none
attr title "packets received from upper layer, vector(packetBytes)"
vector 383 CampusLikeEnvironment.MiddleDevice0.wlan[0].mac.dcf.channelAccess.pendingQueue packetPushed:vector(packetBytes) ETV
attr interpolationmode none
attr title "packet pushed, vector(packetBytes)"
vector 384 CampusLikeEnvironment.MiddleDevice0.wlan[0].mac.dcf.channelAccess.pendingQueue queueLength:vector ETV
attr interpolationmode sample-hold
attr source "count(packetPushed) - count(packetPopped) - count(packetRemoved) - count(packetDropped)"
attr title "queue length, vector"
vector 385 CampusLikeEnvironment.MiddleDevice0.wlan[0].mac.dcf.channelAccess.contention backoffPeriodGenerated:vector ETV
attr interpolationmode none
attr title "backoff periods, vector"
vector 386 CampusLikeEnvironment.MiddleDevice0.wlan[0].mac.dcf.channelAccess.contention backoffActive:vector ETV
attr interpolationmode sample-hold
[...]
515	19400549 10804 1122655 1466508 7.827392406576 9.943934351632 374 0 3 213 243
516	19411353 7577 1122655 1466295 7.827392406576 9.943320351632 255 0 896 9560 2257668
517	19418930 26235 1122655 1466507 7.827392406576 9.943934351632 908 0 1 454 454
518	19445165 17892 1122955 1466741 7.827776258993 9.944362204049 579 0 4.4e-05 0.008492 3.73648e-07
519	19463057 9900 1122955 1466599 7.827776258993 9.944318204049 318 14 1064 207102 218519028
520	19472957 9900 1122955 1466599 7.827776258993 9.944318204049 318 14 1064 207102 218519028
521	19482857 9900 1122955 1466599 7.827776258993 9.944318204049 318 14 1064 207102 218519028
522	19492757 11869 1122657 1466508 7.827392406576 9.943934351632 380 14 1064 273070 288708980
523	19504626 43916 1122658 1466596 7.827392406576 9.944316351632 1520 0 2 1520 2280
524	19548542 11869 1122938 1466582 7.827774406576 9.944316351632 380 14 1064 273070 288708980
525	19560411 11869 1122938 1466582 7.827774406576 9.944316351632 380 14 1064 273070 288708980
526	19572280 9700 1122938 1466582 7.827774406576 9.944316351632 312 14 1064 200718 211726452
527	19581980 14292 1122961 1466605 7.827776491611 9.944318436667 456 14 1064 353934 374748276
528	19596272 120 1214447 1450231 8.487331738475 9.860174898954 4 14 14 56 784
529	19596392 120 1214447 1450231 8.487331738475 9.860174898954 4 14 14 56 784
530	19596512 120 1214447 1450231 8.487331738475 9.860174898954 4 14 14 56 784
531	19596632 165 1214447 1450231 8.487331738475 9.860174898954 4 0.00043017007 0.00751817007 0.019533409937 0.00012699103024995
532	19596797 5964 1122657 1466508 7.827392406576 9.943934351632 187 1064 1064 198968 211701952
533	19602761 6521 1122657 1466508 7.827392406576 9.943934351632 187 0 0.015865899079 0.129289068109 0.00069030126329264
534	19609282 10807 1122657 1466808 7.827392406576 9.94436513303 374 0 2 231 275
535	19620089 14740 1122657 1466808 7.827392406576 9.94436513303 510 0 1 255 255
536	19634829 23640 1122938 1466740 7.827774406576 9.944360351632 765 0 4.4e-05 0.01122 4.9368e-07
537	19658469 11876 1122961 1466605 7.827776491611 9.944318436667 380 14 1064 277270 293236580
538	19670345 11876 1122961 1466605 7.827776491611 9.944318436667 380 14 1064 277270 293236580
539	19682221 14172 1122961 1466605 7.827776491611 9.944318436667 452 14 1064 353878 374747492
540	19696393 11876 1122961 1466605 7.827776491611 9.944318436667 380 14 1064 277270 293236580
541	19708269 8778 1123164 1466808 7.827823187974 9.94436513303 287 14 1064 109018 113246252
542	19717047 7833 1123164 1466808 7.827823187974 9.94436513303 187 0.000430781398 0.023804682559 0.333925408606 0.0037874335345243
543	19724880 2105 1127098 1471318 7.867978877992 9.991615718072 66 1000 1000 66000 66000000
544	19726985 2105 1127099 1471319 7.867978877992 9.991615718072 66 1008 1008 66528 67060224
545	19729090 2105 1127102 1471322 7.867978877992 9.991615718072 66 1036 1036 68376 70837536
546	19731195 2105 1127102 1471322 7.867978877992 9.991615718072 66 1064 1064 70224 74718336
547	19733300 3813 1127102 1471324 7.867978877992 9.991615718072 132 0 1 66 66
548	19737113 2584 1127102 1471322 7.867978877992 9.991615718072 87 0 135 2075 108193
549	19739697 6356 1127102 1471323 7.867978877992 9.991615718072 220 0 1 110 110
550	19746053 2104 1127104 1471324 7.867978877992 9.991615718072 66 1064 1064 70224 74718336
551	19748157 2087 1127104 1471324 7.867978877992 9.991615718072 66 0 0.00129157643 0.008441587184 6.7843211223123e-06
552	19750244 3812 1127104 1471572 7.867978877992 9.992045574912 132 0 2 70 74
553	19754056 3123 1127104 1471324 7.867978877992 9.991615718072 87 24000000 24000000 2088000000 5.0112e+16
554	19757179 2775 1127104 1471324 7.867978877992 9.991615718072 87 1064 1064 92568 98492352
555	19759954 5028 1127104 1471572 7.867978877992 9.992045574912 174 0 1 87 87
556	19764982 10056 1127105 1471400 7.867978877992 9.991997718072 348 0 2 348 522
557	19775038 2775 1127262 1471398 7.868360877992 9.991997718072 87 1064 1064 92568 98492352
558	19777813 2775 1127262 1471398 7.868360877992 9.991997718072 87 1064 1064 92568 98492352
559	19780588 2104 1127262 1471398 7.868360877992 9.991997718072 66 1064 1064 70224 74718336
560	19782692 1972 1127902 1471572 7.870029150861 9.992045574912 66 14 14 924 12936
561	19784664 1972 1127902 1471572 7.870029150861 9.992045574912 66 14 14 924 12936
562	19786636 1972 1127902 1471572 7.870029150861 9.992045574912 66 14 14 924 12936
563	19788608 2700 1127902 1471572 7.870029150861 9.992045574912 66 0.00042985684 0.00849371368 0.065921910421 0.00021386018410612
564	19791308 11580 1122976 1471747 7.827776797275 9.992717987913 363 1064 1064 386232 410950848
565	19802888 11580 1122976 1471747 7.827776797275 9.992717987913 363 1064 1064 386232 410950848
566	19814468 9985 1122976 1471747 7.827776797275 9.992717987913 313 1064 1064 333032 354346048
567	19824453 13032 1122976 1471747 7.827776797275 9.992717987913 363 24000000 24000000 8712000000 2.09088e+17
568	19837485 11452 1122976 1471747 7.827776797275 9.992717987913 359 1036 1036 371924 385313264
569	19848937 11452 1122979 1471750 7.827776797275 9.992717987913 359 1008 1008 361872 364766976
570	19860389 11452 1122979 1471750 7.827776797275 9.992717987913 359 1148 1506 476393 636029171
571	19871841 11452 1122980 1471751 7.827776797275 9.992717987913 359 1000 1000 359000 359000000
572	19883293 15023 1122980 1471751 7.827776797275 9.992717987913 359 0.000768243116 0.07704850295 1.391029283017 0.025860063394849
573	19898316 11093 1122980 1471751 7.827776797275 9.992717987913 359 150 286 79355 17843267
574	19909409 33627 1122985 1471889 7.82777684739 9.99276203906 1089 0 4.4e-05 0.015972 7.02768e-07
575	19943036 10854 1123022 1471796 7.827786797275 9.992727987913 363 14 14 5082 71148
576	19953890 41964 1123023 1471888 7.827786797275 9.992761987913 1452 0 2 1452 2178
577	19995854 10854 1123101 1471874 7.827820797275 9.992761987913 363 14 14 5082 71148
578	20006708 10854 1123101 1471874 7.827820797275 9.992761987913 363 14 14 5082 71148
579	20017562 10854 1123101 1471874 7.827820797275 9.992761987913 363 14 14 5082 71148
580	20028416 501 1134168 1471963 7.9 10 22 160000 640000 8800000 3993600000000
581	20028917 521 1132244 1471963 7.9 10 22 800000 1840000 29520000 41132800000000
582	20029438 1881 1127017 1452903 7.867902949226 9.866233421228 59 1000 1000 59000 59000000
583	20031319 1881 1127018 1452904 7.867902949226 9.866233421228 59 1008 1008 59472 59947776
584	20033200 1881 1127021 1452907 7.867902949226 9.866233421228 59 1036 1036 61124 63324464
585	20035081 1881 1127021 1452907 7.867902949226 9.866233421228 59 1064 1064 62776 66793664
586	20036962 3407 1127021 1452909 7.867902949226 9.866233421228 118 0 2 61 63
587	20040369 2433 1127021 1453836 7.867902949226 9.868496562259 82 0 672 3311 759995
588	20042802 7607 1127021 1454240 7.867902949226 9.870666217889 264 0 1 132 132
589	20050409 1880 1127023 1452909 7.867902949226 9.866233421228 59 1064 1064 62776 66793664
590	20052289 1831 1127023 1452909 7.867902949226 9.866233421228 59 0 0.027574982235 0.035072517926 0.00077728333575562
591	20054120 3403 1127023 1454515 7.867902949226 9.871097050639 118 0 2 63 67
592	20057523 2937 1127023 1454241 7.867902949226 9.870666217889 82 24000000 24000000 1968000000 4.7232e+16
593	20060460 2609 1127023 1454241 7.867902949226 9.870666217889 82 1064 1064 87248 92831872
594	20063069 4725 1127023 1454515 7.867902949226 9.871097050639 164 0 1 82 82
595	20067794 9452 1127024 1454319 7.867902949226 9.871048217889 328 0 2 328 492
596	20077246 2609 1127179 1454317 7.868284949226 9.871048217889 82 1064 1064 87248 92831872
597	20079855 2609 1127179 1454317 7.868284949226 9.871048217889 82 1064 1064 87248 92831872
598	20082464 1879 1127179 1453060 7.868284949226 9.866615421228 59 1064 1064 62776 66793664
599	20084343 1730 1127613 1454515 7.869129781976 9.871097050639 58 14 14 812 11368
600	20086073 1730 1127613 1454515 7.869129781976 9.871097050639 58 14 14 812 11368
601	20087803 1730 1127613 1454515 7.869129781976 9.871097050639 58 14 14 812 11368
602	20089533 2412 1127613 1454515 7.869129781976 9.871097050639 59 0.00043083275 0.034454668615 0.118516073877 0.0021568338346011
603	20091945 1626 1125090 1470671 7.849737819164 9.986205653786 51 1000 1000 51000 51000000
604	20093571 1626 1125091 1470672 7.849737819164 9.986205653786 51 1008 1008 51408 51819264
605	20095197 1626 1125094 1470675 7.849737819164 9.986205653786 51 1036 1036 52836 54738096
606	20096823 1626 1125094 1470675 7.849737819164 9.986205653786 51 1064 1064 54264 57736896
607	20098449 2946 1125094 1470677 7.849737819164 9.986205653786 102 0 1 51 51
608	20101395 1987 1125094 1470675 7.849737819164 9.986205653786 67 0 227 1985 168835
609	20103382 6592 1125094 1470676 7.849737819164 9.986205653786 228 0 1 114 114
610	20109974 1626 1125096 1470677 7.849737819164 9.986205653786 51 1064 1064 54264 57736896
611	20111600 1613 1125096 1470677 7.849737819164 9.986205653786 51 0 0.001393961629 0.006487325932 6.2056666030042e-06
612	20113213 2943 1125096 1470931 7.849737819164 9.986636093332 102 0 1 51 51
613	20116156 2402 1125096 1470677 7.849737819164 9.986205653786 67 24000000 24000000 1608000000 3.8592e+16
614	20118558 2134 1125096 1470677 7.849737819164 9.986205653786 67 1064 1064 71288 75850432
615	20120692 3862 1125096 1470931 7.849737819164 9.986636093332 134 0 1 67 67
616	20124554 7732 1125097 1470753 7.849737819164 9.986587653786 268 0 2 268 402
617	20132286 2134 1125170 1470751 7.850119819164 9.986587653786 67 1064 1064 71288 75850432
618	20134420 2134 1125170 1470751 7.850119819164 9.986587653786 67 1064 1064 71288 75850432
619	20136554 1626 1125170 1470751 7.850119819164 9.986587653786 51 1064 1064 54264 57736896
620	20138180 1521 1125350 1470931 7.85016825871 9.986636093332 51 14 14 714 9996
621	20139701 1521 1125350 1470931 7.85016825871 9.986636093332 51 14 14 714 9996
622	20141222 1521 1125350 1470931 7.85016825871 9.986636093332 51 14 14 714 9996
623	20142743 2133 1125350 1470931 7.85016825871 9.986636093332 51 0.000430439546 0.024473480223 0.061975684344 0.00067512468220465
624	20144876 1978 1122554 1465554 7.827008554159 9.935940730946 62 1000 1000 62000 62000000
625	20146854 1978 1122555 1465555 7.827008554159 9.935940730946 62 1008 1008 62496 62995968
626	20148832 1978 1122558 1465558 7.827008554159 9.935940730946 62 1036 1036 64232 66544352
627	20150810 1978 1122558 1465558 7.827008554159 9.935940730946 62 1064 1064 65968 70189952
628	20152788 3584 1122558 1465560 7.827008554159 9.935940730946 124 0 1 62 62
629	20156372 1835 1122558 1465558 7.827008554159 9.935940730946 62 0 31 916 18272
630	20158207 3584 1122558 1465559 7.827008554159 9.935940730946 124 0 1 62 62
631	20161791 1978 1122560 1465560 7.827008554159 9.935940730946 62 1064 1064 65968 70189952
632	20163769 1805 1122560 1465560 7.827008554159 9.935940730946 62 0 0.000119908882 0.000119908882 1.437813998249e-08
633	20165574 3578 1122560 1465879 7.827008554159 9.93637043578 124 0 1 62 62
634	20169152 2226 1122560 1465560 7.827008554159 9.935940730946 62 24000000 24000000 1488000000 3.5712e+16
635	20171378 1978 1122560 1465560 7.827008554159 9.935940730946 62 1064 1064 65968 70189952
636	20173356 3578 1122560 1465879 7.827008554159 9.93637043578 124 0 1 62 62
637	20176934 7168 1122561 1465636 7.827008554159 9.936322730946 248 0 2 248 372
638	20184102 1978 1122634 1465634 7.827390554159 9.936322730946 62 1064 1064 65968 70189952
639	20186080 1978 1122634 1465634 7.827390554159 9.936322730946 62 1064 1064 65968 70189952
640	20188058 1978 1122634 1465634 7.827390554159 9.936322730946 62 1064 1064 65968 70189952
641	20190036 5748 1122634 1465861 7.827390554159 9.936366730946 186 0 4.4e-05 0.002728 1.20032e-07
642	20195784 1978 1122651 1465651 7.827392406576 9.936324583363 62 1064 1064 65968 70189952
643	20197762 1978 1122651 1465651 7.827392406576 9.936324583363 62 1064 1064 65968 70189952
644	20199740 1978 1122651 1465651 7.827392406576 9.936324583363 62 1064 1064 65968 70189952
645	20201718 1978 1122651 1465651 7.827392406576 9.936324583363 62 1064 1064 65968 70189952
646	20203696 2226 1122651 1465651 7.827392406576 9.936324583363 62 24000000 24000000 1488000000 3.5712e+16
647	20205922 1978 1122651 1465651 7.827392406576 9.936324583363 62 1036 1036 64232 66544352
648	20207900 1854 1122787 1465787 7.827402406576 9.936334583363 62 14 14 868 12152
649	20209754 7168 1122788 1465876 7.827402406576 9.936368583363 248 0 2 248 372
650	20216922 1854 1122862 1465862 7.827436406576 9.936368583363 62 14 14 868 12152
651	20218776 1854 1122862 1465862 7.827436406576 9.936368583363 62 14 14 868 12152
652	20220630 1854 1122862 1465862 7.827436406576 9.936368583363 62 14 14 868 12152
653	20222484 1848 1122879 1465879 7.827438258993 9.93637043578 62 14 14 868 12152
654	20224332 1848 1122879 1465879 7.827438258993 9.93637043578 62 14 14 868 12152
655	20226180 1848 1122879 1465879 7.827438258993 9.93637043578 62 14 14 868 12152
656	20228028 1848 1122879 1465879 7.827438258993 9.93637043578 62 14 14 868 12152
657	20229876 2592 1122879 1465879 7.827438258993 9.93637043578 62 0.000429704834 0.000429704834 0.026641699708 1.1448067150504e-05
658	20232468 1853 1122897 1465897 7.827438797275 9.936370974062 62 14 14 868 12152
659	20234321 1853 1122897 1465897 7.827438797275 9.936370974062 62 14 14 868 12152
660	20236174 1853 1122897 1465897 7.827438797275 9.936370974062 62 14 14 868 12152
661	20238027 1853 1122897 1465897 7.827438797275 9.936370974062 62 14 14 868 12152
662	20239880 1853 1122897 1465897 7.827438797275 9.936370974062 62 14 14 868 12152
663	20241733 1849 1122900 1465900 7.827438827733 9.93637100452 62 14 14 868 12152
664	20243582 1849 1122900 1465900 7.827438827733 9.93637100452 62 14 14 868 12152
665	20245431 1849 1122900 1465900 7.827438827733 9.93637100452 62 14 14 868 12152
666	20247280 1849 1122900 1465900 7.827438827733 9.93637100452 62 14 14 868 12152
667	20249129 1849 1122900 1465900 7.827438827733 9.93637100452 62 14 14 868 12152
668	20250978 3004 1161721 1458160 8.154907004161 9.881107508969 94 1064 1064 100016 106417024
669	20253982 2296 1167787 1458143 8.183110308203 9.881107172847 72 1064 1064 76608 81510912
670	20256278 448 1236907 1411737 8.606979633782 9.623718834637 14 1064 1064 14896 15849344
671	20256726 2169 1168075 1460194 8.184484223168 9.891311930126 68 1064 1064 72352 76982528
672	20258895 1595 1168349 1460232 8.185162613867 9.891314320825 50 1064 1064 53200 56604800
673	20260490 508 1219049 1458921 8.501138481338 9.884896389369 16 1064 1064 17024 18113536
674	20260998 671 1127728 1421025 7.869981294021 9.654672681115 21 1064 1064 22344 23774016
675	20261669 730 1127415 1454317 7.869080949226 9.871048217889 23 1064 1064 24472 26038208
676	20262399 1849 1129895 1466188 7.88760217248 9.942936338552 58 1000 1000 58000 58000000
677	20264248 1849 1129896 1466189 7.88760217248 9.942936338552 58 1008 1008 58464 58931712
678	20266097 1849 1129899 1466192 7.88760217248 9.942936338552 58 1036 1036 60088 62251168
679	20267946 1849 1129899 1466192 7.88760217248 9.942936338552 58 1064 1064 61712 65661568
680	20269795 3350 1129899 1466194 7.88760217248 9.942936338552 116 0 1 58 58
681	20273145 2248 1129899 1466192 7.88760217248 9.942936338552 76 0 807 2733 800915
682	20275393 6811 1129899 1466193 7.88760217248 9.942936338552 236 0 1 118 118
683	20282204 1849 1129901 1466194 7.88760217248 9.942936338552 58 1064 1064 61712 65661568
684	20284053 1816 1129901 1466194 7.88760217248 9.942936338552 58 0 0.001992523902 0.006484199265 8.3230030395715e-06
685	20285869 3347 1129901 1466447 7.88760217248 9.943366364712 116 0 2 60 62
686	20289216 2725 1129901 1466194 7.88760217248 9.942936338552 76 24000000 24000000 1824000000 4.3776e+16
687	20291941 2421 1129901 1466194 7.88760217248 9.942936338552 76 1064 1064 80864 86039296
688	20294362 4386 1129901 1466447 7.88760217248 9.943366364712 152 0 1 76 76
689	20298748 8772 1129902 1466270 7.88760217248 9.943318338552 304 0 2 304 456
690	20307520 2421 1129975 1466268 7.88798417248 9.943318338552 76 1064 1064 80864 86039296
691	20309941 2421 1129975 1466268 7.88798417248 9.943318338552 76 1064 1064 80864 86039296
692	20312362 1848 1129975 1466268 7.88798417248 9.943318338552 58 1064 1064 61712 65661568
693	20314210 1730 1130154 1466447 7.88803219864 9.943366364712 58 14 14 812 11368
694	20315940 1730 1130154 1466447 7.88803219864 9.943366364712 58 14 14 812 11368
695	20317670 1730 1130154 1466447 7.88803219864 9.943366364712 58 14 14 812 11368
696	20319400 2373 1130154 1466447 7.88803219864 9.943366364712 58 0.00043002616 0.033356197523 0.104090775064 0.0017546603222408
697	20321773 2004 1124454 1464911 7.84791154351 9.92720174615 63 1000 1000 63000 63000000
698	20323777 2004 1124455 1464912 7.84791154351 9.92720174615 63 1008 1008 63504 64012032
699	20325781 2004 1124458 1464915 7.84791154351 9.92720174615 63 1036 1036 65268 67617648
700	20327785 2004 1124458 1464915 7.84791154351 9.92720174615 63 1064 1064 67032 71322048
701	20329789 3634 1124458 1464917 7.84791154351 9.927484113925 126 0 2 65 67
702	20333423 3026 1124458 1464915 7.84791154351 9.92720174615 102 0 896 5765 1947847
703	20336449 11141 1124458 1464916 7.84791154351 9.927484113925 386 0 1 193 193
704	20347590 2008 1124460 1464917 7.84791154351 9.927484113925 63 1064 1064 67032 71322048
705	20349598 1960 1124460 1464917 7.84791154351 9.927484113925 63 0 0.009025919712 0.020877882364 0.00013183057328601
706	20351558 3641 1124460 1465192 7.84791154351 9.927914956239 126 0 2 69 75
707	20355199 3660 1124460 1464917 7.84791154351 9.927484113925 102 24000000 24000000 2448000000 5.8752e+16
708	20358859 3252 1124460 1464917 7.84791154351 9.927484113925 102 1064 1064 108528 115473792
709	20362111 5895 1124460 1465192 7.84791154351 9.927914956239 204 0 1 102 102
710	20368006 11784 1124461 1464994 7.84791154351 9.927866113925 408 0 2 408 612
711	20379790 3252 1124534 1464992 7.84829354351 9.927866113925 102 1064 1064 108528 115473792
712	20383042 3252 1124534 1464992 7.84829354351 9.927866113925 102 1064 1064 108528 115473792
713	20386294 2008 1124534 1464992 7.84829354351 9.927866113925 63 1064 1064 67032 71322048
714	20388302 1244 1162892 1459557 8.157905004161 9.886013508969 39 1064 1064 41496 44151744
715	20389546 1885 1124734 1465192 7.848342385824 9.927914956239 63 14 14 882 12348
716	20391431 1885 1124734 1465192 7.848342385824 9.927914956239 63 14 14 882 12348
717	20393316 1885 1124734 1465192 7.848342385824 9.927914956239 63 14 14 882 12348
718	20395201 2641 1124734 1465192 7.848342385824 9.927914956239 63 0.000430842314 0.059990547971 0.175721629413 0.004947793522993
719	20397842 573 1162109 1451947 8.155760995357 9.864850826999 18 1064 1064 19152 20377728
724	20398415 128 1237242 1412801 8.608201228166 9.626450326422 4 1064 1064 4256 4528384
725	20398543 128 1237242 1412801 8.608201228166 9.626450326422 4 1064 1064 4256 4528384
726	20398671 128 1260332 1407300 8.746980562851 9.611822875258 4 1064 1064 4256 4528384
727	20398799 128 1260332 1407300 8.746980562851 9.611822875258 4 1064 1064 4256 4528384
740	20398927 31 1275807 1275807 8.79844510666 8.79844510666 1 1064 1064 1064 1132096
741	20398958 31 1275807 1275807 8.79844510666 8.79844510666 1 1064 1064 1064 1132096
742	20398989 32 1411887 1411887 9.623773834637 9.623773834637 1 1064 1064 1064 1132096
743	20399021 32 1411887 1411887 9.623773834637 9.623773834637 1 1064 1064 1064 1132096
744	20399053 1781 1471963 1471963 0.1 10 100 0 0 0 0
745	20400834 1781 1471963 1471963 0.1 10 100 0 0 0 0
746	20402615 1781 1471963 1471963 0.1 10 100 0 0 0 0
747	20404396 1781 1471963 1471963 0.1 10 100 0 0 0 0
748	20406177 1781 1471963 1471963 0.1 10 100 0 0 0 0
749	20407958 1781 1471963 1471963 0.1 10 100 0 0 0 0
750	20409739 1781 1471963 1471963 0.1 10 100 0 0 0 0
751	20411520 1781 1471963 1471963 0.1 10 100 0 0 0 0
752	20413301 1781 1471963 1471963 0.1 10 100 0 0 0 0
753	20415082 1781 1471963 1471963 0.1 10 100 0 0 0 0
754	20416863 1781 1471963 1471963 0.1 10 100 0 0 0 0
755	20418644 1781 1471963 1471963 0.1 10 100 0 0 0 0

