version 2
run General-0-20220411-05:40:05-6389
attr configname General
attr datetime 20220411-05:40:05
attr experiment General
attr inifile omnetpp.ini
attr iterationvars ""
attr iterationvarsf ""
attr measurement ""
attr network AntennaDirectionalSelectivityExample
attr processid 6389
attr repetition 0
attr replication #0
attr resultdir results
attr runnumber 0
attr seedset 0
param *.host*.numWlanInterfaces 4
param *.hostA.numApps 1
param *.hostA.app[0].typename "\"PingApp\""
param *.hostA.app[0].destAddr "\"hostB\""
param *.hostA.app[0].startTime 0s
param *.hostA.app[0].printPing true
param *.hostA.wlan[*].radio.channelNumber 4
param *.hostB.wlan[*].radio.channelNumber 5
param *.radioMedium.analogModel.ignorePartialInterference true

scalar AntennaDirectionalSelectivityExample.radioMedium.propagation "Arrival computation count" 49
scalar AntennaDirectionalSelectivityExample.radioMedium "transmission count" 7
scalar AntennaDirectionalSelectivityExample.radioMedium "signal send count" 49
scalar AntennaDirectionalSelectivityExample.radioMedium "reception computation count" 45
scalar AntennaDirectionalSelectivityExample.radioMedium "interference computation count" 143
scalar AntennaDirectionalSelectivityExample.radioMedium "reception decision computation count" 18
scalar AntennaDirectionalSelectivityExample.radioMedium "listening decision computation count" 80
scalar AntennaDirectionalSelectivityExample.radioMedium "reception cache hit" 80.519480519481
attr unit %
scalar AntennaDirectionalSelectivityExample.radioMedium "interference cache hit" 66.666666666667
attr unit %
scalar AntennaDirectionalSelectivityExample.radioMedium "noise cache hit" 0
attr unit %
scalar AntennaDirectionalSelectivityExample.radioMedium "snir cache hit" 50
attr unit %
scalar AntennaDirectionalSelectivityExample.radioMedium "reception decision cache hit" 50
attr unit %
scalar AntennaDirectionalSelectivityExample.radioMedium "reception result cache hit" 0
attr unit %
scalar AntennaDirectionalSelectivityExample.hostA.lo[0].lo rcvdPkFromHl:count 0
attr interpolationmode none
attr source packetReceivedFromUpper
attr title "packets received from higher layer, count"
scalar AntennaDirectionalSelectivityExample.hostA.lo[0].lo rcvdPkFromHl:sum(packetBytes) 0
attr interpolationmode none
attr source packetReceivedFromUpper
attr title "packets received from higher layer, sum(packetBytes)"
scalar AntennaDirectionalSelectivityExample.hostA.lo[0].lo passedUpPk:count 0
attr interpolationmode none
attr source packetSentToUpper
attr title "packets passed to higher layer, count"
scalar AntennaDirectionalSelectivityExample.hostA.lo[0].lo passedUpPk:sum(packetBytes) 0
attr interpolationmode none
attr source packetSentToUpper
attr title "packets passed to higher layer, sum(packetBytes)"
scalar AntennaDirectionalSelectivityExample.hostA.wlan[0].mac.dcf.channelAccess.pendingQueue packetPopped:count 1
attr interpolationmode none
attr title "packet popped, count"
scalar AntennaDirectionalSelectivityExample.hostA.wlan[0].mac.dcf.channelAccess.pendingQueue packetPopped:sum(packetBytes) 64
attr interpolationmode none
attr title "packet popped, sum(packetBytes)"
statistic AntennaDirectionalSelectivityExample.hostA.wlan[0].mac.dcf.channelAccess.pendingQueue queueingTime:histogram
field count 1
field mean 0
field stddev -nan
field min 0
field max 0
field sum 0
field sqrsum 0
attr interpolationmode none
attr source queueingTime(packetPopped)
attr title "queueing times, histogram"
attr unit s
bin	-inf	0
bin	-0.5	0
bin	-0.48	0
bin	-0.46	0
bin	-0.44	0
bin	-0.42	0
bin	-0.4	0
bin	-0.38	0
bin	-0.36	0
bin	-0.34	0
bin	-0.32	0
bin	-0.3	0
bin	-0.28	0
bin	-0.26	0
bin	-0.24	0
bin	-0.22	0
bin	-0.2	0
bin	-0.18	0
bin	-0.16	0
bin	-0.14	0
bin	-0.12	0
bin	-0.1	0
bin	-0.08	0
bin	-0.06	0
bin	-0.04	0
bin	-0.02	0
bin	0	1
bin	0.02	0
bin	0.04	0
bin	0.06	0
bin	0.08	0
bin	0.1	0
bin	0.12	0
bin	0.14	0
bin	0.16	0
bin	0.18	0
bin	0.2	0
bin	0.22	0
bin	0.24	0
bin	0.26	0
bin	0.28	0
bin	0.3	0
bin	0.32	0
bin	0.34	0
bin	0.36	0
bin	0.38	0
bin	0.4	0
bin	0.42	0
bin	0.44	0
bin	0.46	0
bin	0.48	0
bin	0.5	0
scalar AntennaDirectionalSelectivityExample.hostA.wlan[0].mac.dcf.channelAccess.pendingQueue queueLength:max 1
attr interpolationmode sample-hold
attr source "count(packetPushed) - count(packetPopped) - count(packetRemoved) - count(packetDropped)"
attr title "queue length, max"
scalar AntennaDirectionalSelectivityExample.hostA.wlan[0].mac.dcf.channelAccess.pendingQueue queueLength:timeavg -nan
attr interpolationmode sample-hold
attr source "count(packetPushed) - count(packetPopped) - count(packetRemoved) - count(packetDropped)"
attr title "queue length, timeavg"
scalar AntennaDirectionalSelectivityExample.hostA.wlan[0].mac.dcf.channelAccess.pendingQueue packetPushed:count 1
attr interpolationmode none
attr title "packet pushed, count"
scalar AntennaDirectionalSelectivityExample.hostA.wlan[0].mac.dcf.channelAccess.pendingQueue packetPushed:sum(packetBytes) 64
attr interpolationmode none
attr title "packet pushed, sum(packetBytes)"
scalar AntennaDirectionalSelectivityExample.hostA.wlan[0].mac.dcf.channelAccess.pendingQueue packetDropQueueOverflow:count 0
attr interpolationmode none
attr source packetDropReasonIsQueueOverflow(packetDropped)
attr title "packet drops: queue overflow, count"
scalar AntennaDirectionalSelectivityExample.hostA.wlan[0].mac.dcf.channelAccess.pendingQueue packetDropQueueOverflow:sum(packetBytes) 0
attr interpolationmode none
attr source packetDropReasonIsQueueOverflow(packetDropped)
attr title "packet drops: queue overflow, sum(packetBytes)"
scalar AntennaDirectionalSelectivityExample.hostA.wlan[0].mac.dcf.channelAccess.pendingQueue packetRemoved:count 0
attr interpolationmode none
attr title "packets removed, count"
scalar AntennaDirectionalSelectivityExample.hostA.wlan[0].mac.dcf.channelAccess.pendingQueue packetRemoved:sum(packetBytes) 0
attr interpolationmode none
attr title "packets removed, sum(packetBytes)"
statistic AntennaDirectionalSelectivityExample.hostA.wlan[0].mac.dcf.channelAccess.inProgressFrames queueingTime:histogram
field count 0
field mean -nan
field stddev -nan
field min -nan
field max -nan
field sum 0
field sqrsum 0
attr interpolationmode none
attr source queueingTime(packetDequeued)
attr title "queueing times, histogram"
bin	-inf	0
bin	0	0
bin	1	0
scalar AntennaDirectionalSelectivityExample.hostA.wlan[0].mac.dcf.channelAccess.inProgressFrames queueLength:max 1
attr interpolationmode sample-hold
attr source "count(packetEnqueued) - count(packetDequeued)"
attr title "queue length, max"
scalar AntennaDirectionalSelectivityExample.hostA.wlan[0].mac.dcf.channelAccess.inProgressFrames queueLength:timeavg -nan
attr interpolationmode sample-hold
attr source "count(packetEnqueued) - count(packetDequeued)"
attr title "queue length, timeavg"
scalar AntennaDirectionalSelectivityExample.hostA.wlan[0].mac.dcf.channelAccess.contention channelAccessGranted:count 1
attr title "channel access granted, count"
scalar AntennaDirectionalSelectivityExample.hostA.wlan[0].mac.dcf.channelAccess.contention stateChanged:count 32
attr interpolationmode none
attr title "contention state changed, count"
scalar AntennaDirectionalSelectivityExample.hostA.wlan[0].mac.dcf.channelAccess channelOwnershipChanged:count 1
attr interpolationmode sample-hold
attr title "channel ownership, count"
scalar AntennaDirectionalSelectivityExample.hostA.wlan[0].mac.dcf.originatorMacDataService packetAggregated:count 0
attr title "packets aggregated, count"
scalar AntennaDirectionalSelectivityExample.hostA.wlan[0].mac.dcf.originatorMacDataService packetFragmented:count 0
attr title "packets fragmented, count"
scalar AntennaDirectionalSelectivityExample.hostA.wlan[0].mac.dcf.recipientMacDataService packetDeaggregated:count 0
attr title "packets deaggregated, count"
scalar AntennaDirectionalSelectivityExample.hostA.wlan[0].mac.dcf.recipientMacDataService packetDefragmented:count 6
attr title "packets defragmented, count"
scalar AntennaDirectionalSelectivityExample.hostA.wlan[0].mac.dcf.recipientMacDataService packetDropDuplicateDetected:count 0
attr interpolationmode none
attr source packetDropReasonIsDuplicateDetected(packetDropped)
attr title "packet drops: duplicate detected, count"
scalar AntennaDirectionalSelectivityExample.hostA.wlan[0].mac.dcf.recipientMacDataService packetDropDuplicateDetected:sum(packetBytes) 0
attr interpolationmode none
attr source packetDropReasonIsDuplicateDetected(packetDropped)
attr title "packet drops: duplicate detected, sum(packetBytes)"
scalar AntennaDirectionalSelectivityExample.hostA.wlan[0].mac.dcf.recoveryProcedure retryLimitReached:count 0
attr title "retry limit reached, count"
scalar AntennaDirectionalSelectivityExample.hostA.wlan[0].mac.dcf frameSequenceFinished:count 0
attr title "finished frame sequences, count"
statistic AntennaDirectionalSelectivityExample.hostA.wlan[0].mac.dcf frameSequenceDuration:histogram
field count 0
field mean -nan
field stddev -nan
field min -nan
field max -nan
field sum 0
field sqrsum 0
attr source frameSequenceDuration(frameSequenceFinished)
attr title "frame sequence durations, histogram"
bin	-inf	0
bin	0	0
bin	1	0
statistic AntennaDirectionalSelectivityExample.hostA.wlan[0].mac.dcf frameSequenceNumPackets:histogram
field count 0
field mean -nan
field stddev -nan
field min -nan
field max -nan
field sum 0
field sqrsum 0
attr source frameSequenceNumPackets(frameSequenceFinished)
attr title "frame sequences: number of packets, histogram"
bin	-inf	0
bin	0	0
bin	1	0
scalar AntennaDirectionalSelectivityExample.hostA.wlan[0].mac.dcf packetReceivedFromPeer:count 6
attr interpolationmode none
attr title "packets received, count"
scalar AntennaDirectionalSelectivityExample.hostA.wlan[0].mac.dcf packetReceivedFromPeer:sum(packetBytes) 384
attr interpolationmode none
attr title "packets received, sum(packetBytes)"
scalar AntennaDirectionalSelectivityExample.hostA.wlan[0].mac.dcf packetReceivedFromPeerUnicast:count 0
attr interpolationmode none
attr source ieee80211Unicast(packetReceivedFromPeer)
attr title "packets received: unicast, count"
scalar AntennaDirectionalSelectivityExample.hostA.wlan[0].mac.dcf packetReceivedFromPeerUnicast:sum(packetBytes) 0
attr interpolationmode none
attr source ieee80211Unicast(packetReceivedFromPeer)
attr title "packets received: unicast, sum(packetBytes)"
scalar AntennaDirectionalSelectivityExample.hostA.wlan[0].mac.dcf packetReceivedFromPeerMulticast:count 6
attr interpolationmode none
attr source ieee80211Multicast(packetReceivedFromPeer)
attr title "packets received: multicast, count"
scalar AntennaDirectionalSelectivityExample.hostA.wlan[0].mac.dcf packetReceivedFromPeerMulticast:sum(packetBytes) 384
attr interpolationmode none
attr source ieee80211Multicast(packetReceivedFromPeer)
attr title "packets received: multicast, sum(packetBytes)"
scalar AntennaDirectionalSelectivityExample.hostA.wlan[0].mac.dcf packetReceivedFromPeerBroadcast:count 6
attr interpolationmode none
attr source ieee80211Broadcast(packetReceivedFromPeer)
attr title "packets received: broadcast, count"
scalar AntennaDirectionalSelectivityExample.hostA.wlan[0].mac.dcf packetReceivedFromPeerBroadcast:sum(packetBytes) 384
attr interpolationmode none
attr source ieee80211Broadcast(packetReceivedFromPeer)
attr title "packets received: broadcast, sum(packetBytes)"
scalar AntennaDirectionalSelectivityExample.hostA.wlan[0].mac.dcf packetReceivedFromPeerWithRetry:count 0
attr interpolationmode none
attr source ieee80211Retry(packetReceivedFromPeer)
attr title "packets received: with retry, count"
scalar AntennaDirectionalSelectivityExample.hostA.wlan[0].mac.dcf packetReceivedFromPeerWithRetry:sum(packetBytes) 0
attr interpolationmode none
attr source ieee80211Retry(packetReceivedFromPeer)
attr title "packets received: with retry, sum(packetBytes)"
scalar AntennaDirectionalSelectivityExample.hostA.wlan[0].mac.dcf packetReceivedFromPeerWithoutRetry:count 6
attr interpolationmode none
attr source ieee80211NotRetry(packetReceivedFromPeer)
attr title "packets received: without retry, count"
scalar AntennaDirectionalSelectivityExample.hostA.wlan[0].mac.dcf packetReceivedFromPeerWithoutRetry:sum(packetBytes) 384
attr interpolationmode none
attr source ieee80211NotRetry(packetReceivedFromPeer)
attr title "packets received: without retry, sum(packetBytes)"
scalar AntennaDirectionalSelectivityExample.hostA.wlan[0].mac.dcf packetSentToPeer:count 0
attr interpolationmode none
attr title "packets sent, count"
scalar AntennaDirectionalSelectivityExample.hostA.wlan[0].mac.dcf packetSentToPeer:sum(packetBytes) 0
attr interpolationmode none
attr title "packets sent, sum(packetBytes)"
scalar AntennaDirectionalSelectivityExample.hostA.wlan[0].mac.dcf packetSentToPeerUnicast:count 0
attr interpolationmode none
attr source ieee80211Unicast(packetSentToPeer)
attr title "packets sent: unicast, count"
scalar AntennaDirectionalSelectivityExample.hostA.wlan[0].mac.dcf packetSentToPeerUnicast:sum(packetBytes) 0
attr interpolationmode none
attr source ieee80211Unicast(packetSentToPeer)
attr title "packets sent: unicast, sum(packetBytes)"
scalar AntennaDirectionalSelectivityExample.hostA.wlan[0].mac.dcf packetSentToPeerMulticast:count 0
attr interpolationmode none
attr source ieee80211Multicast(packetSentToPeer)
attr title "packets sent: multicast, count"
scalar AntennaDirectionalSelectivityExample.hostA.wlan[0].mac.dcf packetSentToPeerMulticast:sum(packetBytes) 0
attr interpolationmode none
attr source ieee80211Multicast(packetSentToPeer)
attr title "packets sent: multicast, sum(packetBytes)"
scalar AntennaDirectionalSelectivityExample.hostA.wlan[0].mac.dcf packetSentToPeerBroadcast:count 0
attr interpolationmode none
attr source ieee80211Broadcast(packetSentToPeer)
attr title "packets sent: broadcast , count"
scalar AntennaDirectionalSelectivityExample.hostA.wlan[0].mac.dcf packetSentToPeerBroadcast:sum(packetBytes) 0
attr interpolationmode none
attr source ieee80211Broadcast(packetSentToPeer)
attr title "packets sent: broadcast , sum(packetBytes)"
scalar AntennaDirectionalSelectivityExample.hostA.wlan[0].mac.dcf packetSentToPeerWithRetry:count 0
attr interpolationmode none
attr source ieee80211Retry(packetSentToPeer)
attr title "packets sent: with retry, count"
scalar AntennaDirectionalSelectivityExample.hostA.wlan[0].mac.dcf packetSentToPeerWithRetry:sum(packetBytes) 0
attr interpolationmode none
attr source ieee80211Retry(packetSentToPeer)
attr title "packets sent: with retry, sum(packetBytes)"
scalar AntennaDirectionalSelectivityExample.hostA.wlan[0].mac.dcf packetSentToPeerWithoutRetry:count 0
attr interpolationmode none
attr source ieee80211NotRetry(packetSentToPeer)
attr title "packets sent: without retry, count"
scalar AntennaDirectionalSelectivityExample.hostA.wlan[0].mac.dcf packetSentToPeerWithoutRetry:sum(packetBytes) 0
attr interpolationmode none
attr source ieee80211NotRetry(packetSentToPeer)
attr title "packets sent: without retry, sum(packetBytes)"
scalar AntennaDirectionalSelectivityExample.hostA.wlan[0].mac.dcf packetDrop:count 0
attr interpolationmode none
attr source packetDropped
attr title "packet drops, count"
scalar AntennaDirectionalSelectivityExample.hostA.wlan[0].mac.dcf packetDrop:sum(packetBytes) 0
attr interpolationmode none
attr source packetDropped
attr title "packet drops, sum(packetBytes)"
scalar AntennaDirectionalSelectivityExample.hostA.wlan[0].mac.dcf packetDropNotAddressedToUs:count 0
attr interpolationmode none
attr source packetDropReasonIsNotAddressedToUs(packetDropped)
attr title "packet drops: not addressed to us, count"
scalar AntennaDirectionalSelectivityExample.hostA.wlan[0].mac.dcf packetDropNotAddressedToUs:sum(packetBytes) 0
attr interpolationmode none
attr source packetDropReasonIsNotAddressedToUs(packetDropped)
attr title "packet drops: not addressed to us, sum(packetBytes)"
scalar AntennaDirectionalSelectivityExample.hostA.wlan[0].mac.dcf packetDropQueueOverflow:count 0
attr interpolationmode none
attr source packetDropReasonIsQueueOverflow(packetDropped)
attr title "packet drops: queue overflow, count"
scalar AntennaDirectionalSelectivityExample.hostA.wlan[0].mac.dcf packetDropQueueOverflow:sum(packetBytes) 0
attr interpolationmode none
attr source packetDropReasonIsQueueOverflow(packetDropped)
attr title "packet drops: queue overflow, sum(packetBytes)"
scalar AntennaDirectionalSelectivityExample.hostA.wlan[0].mac.dcf packetDropRetryLimitReached:count 0
attr interpolationmode none
attr source packetDropReasonIsRetryLimitReached(packetDropped)
attr title "packet drops: retry limit reached, count"
scalar AntennaDirectionalSelectivityExample.hostA.wlan[0].mac.dcf packetDropRetryLimitReached:sum(packetBytes) 0
attr interpolationmode none
attr source packetDropReasonIsRetryLimitReached(packetDropped)
attr title "packet drops: retry limit reached, sum(packetBytes)"
scalar AntennaDirectionalSelectivityExample.hostA.wlan[0].mac.dcf linkBroken:count 0
attr interpolationmode none
attr title "link breaks, count"
scalar AntennaDirectionalSelectivityExample.hostA.wlan[0].mac packetReceivedFromLower:count 6
attr interpolationmode none
attr title "packets received from lower layer, count"
scalar AntennaDirectionalSelectivityExample.hostA.wlan[0].mac packetReceivedFromLower:sum(packetBytes) 384
attr interpolationmode none
attr title "packets received from lower layer, sum(packetBytes)"
scalar AntennaDirectionalSelectivityExample.hostA.wlan[0].mac packetSentToLower:count 1
attr interpolationmode none
attr title "packets sent to lower layer, count"
scalar AntennaDirectionalSelectivityExample.hostA.wlan[0].mac packetSentToLower:sum(packetBytes) 64
attr interpolationmode none
attr title "packets sent to lower layer, sum(packetBytes)"
scalar AntennaDirectionalSelectivityExample.hostA.wlan[0].mac packetReceivedFromUpper:count 1
attr interpolationmode none
attr title "packets received from upper layer, count"
scalar AntennaDirectionalSelectivityExample.hostA.wlan[0].mac packetReceivedFromUpper:sum(packetBytes) 36
attr interpolationmode none
attr title "packets received from upper layer, sum(packetBytes)"
scalar AntennaDirectionalSelectivityExample.hostA.wlan[0].mac packetSentToUpper:count 6
attr interpolationmode none
attr title "packets sent to upper layer, count"
scalar AntennaDirectionalSelectivityExample.hostA.wlan[0].mac packetSentToUpper:sum(packetBytes) 216
attr interpolationmode none
attr title "packets sent to upper layer, sum(packetBytes)"
scalar AntennaDirectionalSelectivityExample.hostA.wlan[0].mac packetDrop:count 0
attr interpolationmode none
attr source packetDropped
attr title "packet drops, count"
scalar AntennaDirectionalSelectivityExample.hostA.wlan[0].mac packetDrop:sum(packetBytes) 0
attr interpolationmode none
attr source packetDropped
attr title "packet drops, sum(packetBytes)"
scalar AntennaDirectionalSelectivityExample.hostA.wlan[0].mac packetDropIncorrectlyReceived:count 0
attr interpolationmode none
attr source packetDropReasonIsIncorrectlyReceived(packetDropped)
attr title "packet drops: incorrectly received, count"
scalar AntennaDirectionalSelectivityExample.hostA.wlan[0].mac packetDropIncorrectlyReceived:sum(packetBytes) 0
attr interpolationmode none
attr source packetDropReasonIsIncorrectlyReceived(packetDropped)
attr title "packet drops: incorrectly received, sum(packetBytes)"
scalar AntennaDirectionalSelectivityExample.hostA.wlan[0].mac packetDropNotAddressedToUs:count 0
attr interpolationmode none
attr source packetDropReasonIsNotAddressedToUs(packetDropped)
attr title "packet drops: not addressed to us, count"
scalar AntennaDirectionalSelectivityExample.hostA.wlan[0].mac packetDropNotAddressedToUs:sum(packetBytes) 0
attr interpolationmode none
attr source packetDropReasonIsNotAddressedToUs(packetDropped)
attr title "packet drops: not addressed to us, sum(packetBytes)"
scalar AntennaDirectionalSelectivityExample.hostA.wlan[0].mac packetDropQueueOverflow:count 0
attr interpolationmode none
attr source packetDropReasonIsQueueOverflow(packetDropped)
attr title "packet drops: queue overflow, count"
scalar AntennaDirectionalSelectivityExample.hostA.wlan[0].mac packetDropQueueOverflow:sum(packetBytes) 0
attr interpolationmode none
attr source packetDropReasonIsQueueOverflow(packetDropped)
attr title "packet drops: queue overflow, sum(packetBytes)"
scalar AntennaDirectionalSelectivityExample.hostA.wlan[0].mac packetDropRetryLimitReached:count 0
attr interpolationmode none
attr source packetDropReasonIsRetryLimitReached(packetDropped)
attr title "packet drops: retry limit reached, count"
scalar AntennaDirectionalSelectivityExample.hostA.wlan[0].mac packetDropRetryLimitReached:sum(packetBytes) 0
attr interpolationmode none
attr source packetDropReasonIsRetryLimitReached(packetDropped)
attr title "packet drops: retry limit reached, sum(packetBytes)"
scalar AntennaDirectionalSelectivityExample.hostA.wlan[0].mac packetDropDuplicateDetected:count 0
attr interpolationmode none
attr source packetDropReasonIsDuplicateDetected(packetDropped)
attr title "packet drops: duplicate detected, count"
scalar AntennaDirectionalSelectivityExample.hostA.wlan[0].mac packetDropDuplicateDetected:sum(packetBytes) 0
attr interpolationmode none
attr source packetDropReasonIsDuplicateDetected(packetDropped)
attr title "packet drops: duplicate detected, sum(packetBytes)"
scalar AntennaDirectionalSelectivityExample.hostA.wlan[0].mac packetDropOther:count 0
attr interpolationmode none
attr source packetDropReasonIsOther(packetDropped)
attr title "packet drops: other, count"
scalar AntennaDirectionalSelectivityExample.hostA.wlan[0].mac packetDropOther:sum(packetBytes) 0
attr interpolationmode none
attr source packetDropReasonIsOther(packetDropped)
attr title "packet drops: other, sum(packetBytes)"
scalar AntennaDirectionalSelectivityExample.hostA.wlan[0].mac linkBroken:count 0
attr interpolationmode none
attr title "link breaks, count"
statistic AntennaDirectionalSelectivityExample.hostA.wlan[0].radio radioChannel:histogram
field count 1
field mean 4
field stddev -nan
field min 4
field max 4
field sum 4
field sqrsum 16
attr interpolationmode sample-hold
attr source radioChannelChanged
attr title "Radio channel, histogram"
bin	-inf	0
bin	3	0
bin	4	1
bin	5	0
scalar AntennaDirectionalSelectivityExample.hostA.wlan[0].radio radioMode:count 4
attr interpolationmode sample-hold
attr source radioModeChanged
attr title "Radio mode, count"
scalar AntennaDirectionalSelectivityExample.hostA.wlan[0].radio receptionState:count 14
attr interpolationmode sample-hold
attr source receptionStateChanged
attr title "Radio reception state, count"
scalar AntennaDirectionalSelectivityExample.hostA.wlan[0].radio transmissionState:count 2
attr interpolationmode sample-hold
attr source transmissionStateChanged
attr title "Radio transmission state, count"
statistic AntennaDirectionalSelectivityExample.hostA.wlan[0].radio minSnir:histogram
field count 6
field mean 2000000000000
field stddev 0
field min 2000000000000
field max 2000000000000
field sum 12000000000000
field sqrsum 2.4e+25
attr source minimumSnir(packetSentToUpper)
attr title "Min SNIR, histogram"
bin	-inf	0
bin	1999999999999	0
bin	2000000000000	6
bin	2000000000001	0
statistic AntennaDirectionalSelectivityExample.hostA.wlan[0].radio packetErrorRate:histogram
field count 6
field mean 0
field stddev 0
field min 0
field max 0
field sum 0
field sqrsum 0
attr source packetErrorRate(packetSentToUpper)
attr title "Packet error rate, histogram"
bin	-inf	0
bin	-0.5	0
bin	-0.48	0
bin	-0.46	0
bin	-0.44	0
bin	-0.42	0
bin	-0.4	0
bin	-0.38	0
bin	-0.36	0
bin	-0.34	0
bin	-0.32	0
bin	-0.3	0
bin	-0.28	0
bin	-0.26	0
bin	-0.24	0
bin	-0.22	0
bin	-0.2	0
bin	-0.18	0
bin	-0.16	0
bin	-0.14	0
bin	-0.12	0
bin	-0.1	0
bin	-0.08	0
bin	-0.06	0
bin	-0.04	0
bin	-0.02	0
bin	0	6
bin	0.02	0
bin	0.04	0
bin	0.06	0
bin	0.08	0
bin	0.1	0
bin	0.12	0
bin	0.14	0
bin	0.16	0
bin	0.18	0
bin	0.2	0
bin	0.22	0
bin	0.24	0
bin	0.26	0
bin	0.28	0
bin	0.3	0
bin	0.32	0
bin	0.34	0
bin	0.36	0
bin	0.38	0
bin	0.4	0
bin	0.42	0
bin	0.44	0
bin	0.46	0
bin	0.48	0
bin	0.5	0
statistic AntennaDirectionalSelectivityExample.hostA.wlan[0].radio bitErrorRate:histogram
field count 0
field mean -nan
field stddev -nan
field min -nan
field max -nan
field sum 0
field sqrsum 0
attr source bitErrorRate(packetSentToUpper)
attr title "Bit error rate, histogram"
bin	-inf	0
bin	0	0
bin	1	0
statistic AntennaDirectionalSelectivityExample.hostA.wlan[0].radio symbolErrorRate:histogram
field count 0
field mean -nan
field stddev -nan
field min -nan
field max -nan
field sum 0
field sqrsum 0
attr source symbolErrorRate(packetSentToUpper)
attr title "Symbol error rate, histogram"
bin	-inf	0
bin	0	0
bin	1	0
scalar AntennaDirectionalSelectivityExample.hostA.wlan[1].mac.dcf.channelAccess.pendingQueue packetPopped:count 1
attr interpolationmode none
attr title "packet popped, count"
scalar AntennaDirectionalSelectivityExample.hostA.wlan[1].mac.dcf.channelAccess.pendingQueue packetPopped:sum(packetBytes) 64
attr interpolationmode none
attr title "packet popped, sum(packetBytes)"
statistic AntennaDirectionalSelectivityExample.hostA.wlan[1].mac.dcf.channelAccess.pendingQueue queueingTime:histogram
field count 1
field mean 0
field stddev -nan
field min 0
field max 0
field sum 0
field sqrsum 0
attr interpolationmode none
attr source queueingTime(packetPopped)
attr title "queueing times, histogram"
attr unit s
bin	-inf	0
bin	-0.5	0
bin	-0.48	0
bin	-0.46	0
bin	-0.44	0
bin	-0.42	0
bin	-0.4	0
bin	-0.38	0
bin	-0.36	0
bin	-0.34	0
bin	-0.32	0
bin	-0.3	0
bin	-0.28	0
bin	-0.26	0
bin	-0.24	0
bin	-0.22	0
bin	-0.2	0
bin	-0.18	0
bin	-0.16	0
bin	-0.14	0
bin	-0.12	0
bin	-0.1	0
bin	-0.08	0
bin	-0.06	0
bin	-0.04	0
bin	-0.02	0
bin	0	1
bin	0.02	0
bin	0.04	0
bin	0.06	0
bin	0.08	0
bin	0.1	0
bin	0.12	0
bin	0.14	0
bin	0.16	0
bin	0.18	0
bin	0.2	0
bin	0.22	0
bin	0.24	0
bin	0.26	0
bin	0.28	0
bin	0.3	0
bin	0.32	0
bin	0.34	0
bin	0.36	0
bin	0.38	0
bin	0.4	0
bin	0.42	0
bin	0.44	0
bin	0.46	0
bin	0.48	0
bin	0.5	0
scalar AntennaDirectionalSelectivityExample.hostA.wlan[1].mac.dcf.channelAccess.pendingQueue queueLength:max 1
attr interpolationmode sample-hold
attr source "count(packetPushed) - count(packetPopped) - count(packetRemoved) - count(packetDropped)"
attr title "queue length, max"
scalar AntennaDirectionalSelectivityExample.hostA.wlan[1].mac.dcf.channelAccess.pendingQueue queueLength:timeavg 0
attr interpolationmode sample-hold
attr source "count(packetPushed) - count(packetPopped) - count(packetRemoved) - count(packetDropped)"
attr title "queue length, timeavg"
scalar AntennaDirectionalSelectivityExample.hostA.wlan[1].mac.dcf.channelAccess.pendingQueue packetPushed:count 1
attr interpolationmode none
attr title "packet pushed, count"
scalar AntennaDirectionalSelectivityExample.hostA.wlan[1].mac.dcf.channelAccess.pendingQueue packetPushed:sum(packetBytes) 64
attr interpolationmode none
attr title "packet pushed, sum(packetBytes)"
scalar AntennaDirectionalSelectivityExample.hostA.wlan[1].mac.dcf.channelAccess.pendingQueue packetDropQueueOverflow:count 0
attr interpolationmode none
attr source packetDropReasonIsQueueOverflow(packetDropped)
attr title "packet drops: queue overflow, count"
scalar AntennaDirectionalSelectivityExample.hostA.wlan[1].mac.dcf.channelAccess.pendingQueue packetDropQueueOverflow:sum(packetBytes) 0
attr interpolationmode none
attr source packetDropReasonIsQueueOverflow(packetDropped)
attr title "packet drops: queue overflow, sum(packetBytes)"
scalar AntennaDirectionalSelectivityExample.hostA.wlan[1].mac.dcf.channelAccess.pendingQueue packetRemoved:count 0
attr interpolationmode none
attr title "packets removed, count"
scalar AntennaDirectionalSelectivityExample.hostA.wlan[1].mac.dcf.channelAccess.pendingQueue packetRemoved:sum(packetBytes) 0
attr interpolationmode none
attr title "packets removed, sum(packetBytes)"
statistic AntennaDirectionalSelectivityExample.hostA.wlan[1].mac.dcf.channelAccess.inProgressFrames queueingTime:histogram
field count 1
field mean 5e-05
field stddev -nan
field min 5e-05
field max 5e-05
field sum 5e-05
field sqrsum 2.5e-09
attr interpolationmode none
attr source queueingTime(packetDequeued)
attr title "queueing times, histogram"
bin	-inf	0
bin	0	1
bin	0.01	0
bin	0.02	0
bin	0.03	0
bin	0.04	0
bin	0.05	0
bin	0.06	0
bin	0.07	0
bin	0.08	0
bin	0.09	0
bin	0.1	0
bin	0.11	0
bin	0.12	0
bin	0.13	0
bin	0.14	0
bin	0.15	0
bin	0.16	0
bin	0.17	0
bin	0.18	0
bin	0.19	0
bin	0.2	0
bin	0.21	0
bin	0.22	0
bin	0.23	0
bin	0.24	0
bin	0.25	0
bin	0.26	0
bin	0.27	0
bin	0.28	0
bin	0.29	0
bin	0.3	0
bin	0.31	0
bin	0.32	0
bin	0.33	0
bin	0.34	0
bin	0.35	0
bin	0.36	0
bin	0.37	0
bin	0.38	0
bin	0.39	0
bin	0.4	0
bin	0.41	0
bin	0.42	0
bin	0.43	0
bin	0.44	0
bin	0.45	0
bin	0.46	0
bin	0.47	0
bin	0.48	0
bin	0.49	0
bin	0.5	0
bin	0.51	0
scalar AntennaDirectionalSelectivityExample.hostA.wlan[1].mac.dcf.channelAccess.inProgressFrames queueLength:max 1
attr interpolationmode sample-hold
attr source "count(packetEnqueued) - count(packetDequeued)"
attr title "queue length, max"
scalar AntennaDirectionalSelectivityExample.hostA.wlan[1].mac.dcf.channelAccess.inProgressFrames queueLength:timeavg 1.25e-05
attr interpolationmode sample-hold
attr source "count(packetEnqueued) - count(packetDequeued)"
attr title "queue length, timeavg"
scalar AntennaDirectionalSelectivityExample.hostA.wlan[1].mac.dcf.channelAccess.contention channelAccessGranted:count 1
attr title "channel access granted, count"
scalar AntennaDirectionalSelectivityExample.hostA.wlan[1].mac.dcf.channelAccess.contention stateChanged:count 32
attr interpolationmode none
attr title "contention state changed, count"
scalar AntennaDirectionalSelectivityExample.hostA.wlan[1].mac.dcf.channelAccess channelOwnershipChanged:count 2
attr interpolationmode sample-hold
attr title "channel ownership, count"
scalar AntennaDirectionalSelectivityExample.hostA.wlan[1].mac.dcf.originatorMacDataService packetAggregated:count 0
attr title "packets aggregated, count"
scalar AntennaDirectionalSelectivityExample.hostA.wlan[1].mac.dcf.originatorMacDataService packetFragmented:count 0
attr title "packets fragmented, count"
scalar AntennaDirectionalSelectivityExample.hostA.wlan[1].mac.dcf.recipientMacDataService packetDeaggregated:count 0
attr title "packets deaggregated, count"
scalar AntennaDirectionalSelectivityExample.hostA.wlan[1].mac.dcf.recipientMacDataService packetDefragmented:count 5
attr title "packets defragmented, count"
scalar AntennaDirectionalSelectivityExample.hostA.wlan[1].mac.dcf.recipientMacDataService packetDropDuplicateDetected:count 0
attr interpolationmode none
attr source packetDropReasonIsDuplicateDetected(packetDropped)
attr title "packet drops: duplicate detected, count"
scalar AntennaDirectionalSelectivityExample.hostA.wlan[1].mac.dcf.recipientMacDataService packetDropDuplicateDetected:sum(packetBytes) 0
attr interpolationmode none
attr source packetDropReasonIsDuplicateDetected(packetDropped)
attr title "packet drops: duplicate detected, sum(packetBytes)"
scalar AntennaDirectionalSelectivityExample.hostA.wlan[1].mac.dcf.recoveryProcedure retryLimitReached:count 0
attr title "retry limit reached, count"
scalar AntennaDirectionalSelectivityExample.hostA.wlan[1].mac.dcf frameSequenceFinished:count 1
attr title "finished frame sequences, count"
statistic AntennaDirectionalSelectivityExample.hostA.wlan[1].mac.dcf frameSequenceDuration:histogram
field count 1
field mean 5e-05
field stddev -nan
field min 5e-05
field max 5e-05
field sum 5e-05
field sqrsum 2.5e-09
attr source frameSequenceDuration(frameSequenceFinished)
attr title "frame sequence durations, histogram"
bin	-inf	0
bin	0	1
bin	0.01	0
bin	0.02	0
bin	0.03	0
bin	0.04	0
bin	0.05	0
bin	0.06	0
bin	0.07	0
bin	0.08	0
bin	0.09	0
bin	0.1	0
bin	0.11	0
bin	0.12	0
bin	0.13	0
bin	0.14	0
bin	0.15	0
bin	0.16	0
bin	0.17	0
bin	0.18	0
bin	0.19	0
bin	0.2	0
bin	0.21	0
bin	0.22	0
bin	0.23	0
bin	0.24	0
bin	0.25	0
bin	0.26	0
bin	0.27	0
bin	0.28	0
bin	0.29	0
bin	0.3	0
bin	0.31	0
bin	0.32	0
bin	0.33	0
bin	0.34	0
bin	0.35	0
bin	0.36	0
bin	0.37	0
bin	0.38	0
bin	0.39	0
bin	0.4	0
bin	0.41	0
bin	0.42	0
bin	0.43	0
bin	0.44	0
bin	0.45	0
bin	0.46	0
bin	0.47	0
bin	0.48	0
bin	0.49	0
bin	0.5	0
bin	0.51	0
statistic AntennaDirectionalSelectivityExample.hostA.wlan[1].mac.dcf frameSequenceNumPackets:histogram
field count 1
field mean 1
field stddev -nan
field min 1
field max 1
field sum 1
field sqrsum 1
attr source frameSequenceNumPackets(frameSequenceFinished)
attr title "frame sequences: number of packets, histogram"
bin	-inf	0
bin	0	0
bin	1	1
bin	2	0
scalar AntennaDirectionalSelectivityExample.hostA.wlan[1].mac.dcf packetReceivedFromPeer:count 5
attr interpolationmode none
attr title "packets received, count"
scalar AntennaDirectionalSelectivityExample.hostA.wlan[1].mac.dcf packetReceivedFromPeer:sum(packetBytes) 320
attr interpolationmode none
attr title "packets received, sum(packetBytes)"
scalar AntennaDirectionalSelectivityExample.hostA.wlan[1].mac.dcf packetReceivedFromPeerUnicast:count 0
attr interpolationmode none
attr source ieee80211Unicast(packetReceivedFromPeer)
attr title "packets received: unicast, count"
scalar AntennaDirectionalSelectivityExample.hostA.wlan[1].mac.dcf packetReceivedFromPeerUnicast:sum(packetBytes) 0
attr interpolationmode none
attr source ieee80211Unicast(packetReceivedFromPeer)
attr title "packets received: unicast, sum(packetBytes)"
scalar AntennaDirectionalSelectivityExample.hostA.wlan[1].mac.dcf packetReceivedFromPeerMulticast:count 5
attr interpolationmode none
attr source ieee80211Multicast(packetReceivedFromPeer)
attr title "packets received: multicast, count"
scalar AntennaDirectionalSelectivityExample.hostA.wlan[1].mac.dcf packetReceivedFromPeerMulticast:sum(packetBytes) 320
attr interpolationmode none
attr source ieee80211Multicast(packetReceivedFromPeer)
attr title "packets received: multicast, sum(packetBytes)"
scalar AntennaDirectionalSelectivityExample.hostA.wlan[1].mac.dcf packetReceivedFromPeerBroadcast:count 5
attr interpolationmode none
attr source ieee80211Broadcast(packetReceivedFromPeer)
attr title "packets received: broadcast, count"
scalar AntennaDirectionalSelectivityExample.hostA.wlan[1].mac.dcf packetReceivedFromPeerBroadcast:sum(packetBytes) 320
attr interpolationmode none
attr source ieee80211Broadcast(packetReceivedFromPeer)
attr title "packets received: broadcast, sum(packetBytes)"
scalar AntennaDirectionalSelectivityExample.hostA.wlan[1].mac.dcf packetReceivedFromPeerWithRetry:count 0
attr interpolationmode none
attr source ieee80211Retry(packetReceivedFromPeer)
attr title "packets received: with retry, count"
scalar AntennaDirectionalSelectivityExample.hostA.wlan[1].mac.dcf packetReceivedFromPeerWithRetry:sum(packetBytes) 0
attr interpolationmode none
attr source ieee80211Retry(packetReceivedFromPeer)
attr title "packets received: with retry, sum(packetBytes)"
scalar AntennaDirectionalSelectivityExample.hostA.wlan[1].mac.dcf packetReceivedFromPeerWithoutRetry:count 5
attr interpolationmode none
attr source ieee80211NotRetry(packetReceivedFromPeer)
attr title "packets received: without retry, count"
scalar AntennaDirectionalSelectivityExample.hostA.wlan[1].mac.dcf packetReceivedFromPeerWithoutRetry:sum(packetBytes) 320
attr interpolationmode none
attr source ieee80211NotRetry(packetReceivedFromPeer)
attr title "packets received: without retry, sum(packetBytes)"
scalar AntennaDirectionalSelectivityExample.hostA.wlan[1].mac.dcf packetSentToPeer:count 1
attr interpolationmode none
attr title "packets sent, count"
scalar AntennaDirectionalSelectivityExample.hostA.wlan[1].mac.dcf packetSentToPeer:sum(packetBytes) 64
attr interpolationmode none
attr title "packets sent, sum(packetBytes)"
scalar AntennaDirectionalSelectivityExample.hostA.wlan[1].mac.dcf packetSentToPeerUnicast:count 0
attr interpolationmode none
attr source ieee80211Unicast(packetSentToPeer)
attr title "packets sent: unicast, count"
scalar AntennaDirectionalSelectivityExample.hostA.wlan[1].mac.dcf packetSentToPeerUnicast:sum(packetBytes) 0
attr interpolationmode none
attr source ieee80211Unicast(packetSentToPeer)
attr title "packets sent: unicast, sum(packetBytes)"
scalar AntennaDirectionalSelectivityExample.hostA.wlan[1].mac.dcf packetSentToPeerMulticast:count 1
attr interpolationmode none
attr source ieee80211Multicast(packetSentToPeer)
attr title "packets sent: multicast, count"
scalar AntennaDirectionalSelectivityExample.hostA.wlan[1].mac.dcf packetSentToPeerMulticast:sum(packetBytes) 64
attr interpolationmode none
attr source ieee80211Multicast(packetSentToPeer)
attr title "packets sent: multicast, sum(packetBytes)"
scalar AntennaDirectionalSelectivityExample.hostA.wlan[1].mac.dcf packetSentToPeerBroadcast:count 1
attr interpolationmode none
attr source ieee80211Broadcast(packetSentToPeer)
attr title "packets sent: broadcast , count"
scalar AntennaDirectionalSelectivityExample.hostA.wlan[1].mac.dcf packetSentToPeerBroadcast:sum(packetBytes) 64
attr interpolationmode none
attr source ieee80211Broadcast(packetSentToPeer)
attr title "packets sent: broadcast , sum(packetBytes)"
scalar AntennaDirectionalSelectivityExample.hostA.wlan[1].mac.dcf packetSentToPeerWithRetry:count 0
attr interpolationmode none
attr source ieee80211Retry(packetSentToPeer)
attr title "packets sent: with retry, count"
scalar AntennaDirectionalSelectivityExample.hostA.wlan[1].mac.dcf packetSentToPeerWithRetry:sum(packetBytes) 0
attr interpolationmode none
attr source ieee80211Retry(packetSentToPeer)
attr title "packets sent: with retry, sum(packetBytes)"
scalar AntennaDirectionalSelectivityExample.hostA.wlan[1].mac.dcf packetSentToPeerWithoutRetry:count 1
attr interpolationmode none
attr source ieee80211NotRetry(packetSentToPeer)
attr title "packets sent: without retry, count"
scalar AntennaDirectionalSelectivityExample.hostA.wlan[1].mac.dcf packetSentToPeerWithoutRetry:sum(packetBytes) 64
attr interpolationmode none
attr source ieee80211NotRetry(packetSentToPeer)
attr title "packets sent: without retry, sum(packetBytes)"
scalar AntennaDirectionalSelectivityExample.hostA.wlan[1].mac.dcf packetDrop:count 0
attr interpolationmode none
attr source packetDropped
attr title "packet drops, count"
scalar AntennaDirectionalSelectivityExample.hostA.wlan[1].mac.dcf packetDrop:sum(packetBytes) 0
attr interpolationmode none
attr source packetDropped
attr title "packet drops, sum(packetBytes)"
scalar AntennaDirectionalSelectivityExample.hostA.wlan[1].mac.dcf packetDropNotAddressedToUs:count 0
attr interpolationmode none
attr source packetDropReasonIsNotAddressedToUs(packetDropped)
attr title "packet drops: not addressed to us, count"
scalar AntennaDirectionalSelectivityExample.hostA.wlan[1].mac.dcf packetDropNotAddressedToUs:sum(packetBytes) 0
attr interpolationmode none
attr source packetDropReasonIsNotAddressedToUs(packetDropped)
attr title "packet drops: not addressed to us, sum(packetBytes)"
scalar AntennaDirectionalSelectivityExample.hostA.wlan[1].mac.dcf packetDropQueueOverflow:count 0
attr interpolationmode none
attr source packetDropReasonIsQueueOverflow(packetDropped)
attr title "packet drops: queue overflow, count"
scalar AntennaDirectionalSelectivityExample.hostA.wlan[1].mac.dcf packetDropQueueOverflow:sum(packetBytes) 0
attr interpolationmode none
attr source packetDropReasonIsQueueOverflow(packetDropped)
attr title "packet drops: queue overflow, sum(packetBytes)"
scalar AntennaDirectionalSelectivityExample.hostA.wlan[1].mac.dcf packetDropRetryLimitReached:count 0
attr interpolationmode none
attr source packetDropReasonIsRetryLimitReached(packetDropped)
attr title "packet drops: retry limit reached, count"
scalar AntennaDirectionalSelectivityExample.hostA.wlan[1].mac.dcf packetDropRetryLimitReached:sum(packetBytes) 0
attr interpolationmode none
attr source packetDropReasonIsRetryLimitReached(packetDropped)
attr title "packet drops: retry limit reached, sum(packetBytes)"
scalar AntennaDirectionalSelectivityExample.hostA.wlan[1].mac.dcf linkBroken:count 0
attr interpolationmode none
attr title "link breaks, count"
scalar AntennaDirectionalSelectivityExample.hostA.wlan[1].mac packetReceivedFromLower:count 5
attr interpolationmode none
attr title "packets received from lower layer, count"
scalar AntennaDirectionalSelectivityExample.hostA.wlan[1].mac packetReceivedFromLower:sum(packetBytes) 320
attr interpolationmode none
attr title "packets received from lower layer, sum(packetBytes)"
scalar AntennaDirectionalSelectivityExample.hostA.wlan[1].mac packetSentToLower:count 1
attr interpolationmode none
attr title "packets sent to lower layer, count"
scalar AntennaDirectionalSelectivityExample.hostA.wlan[1].mac packetSentToLower:sum(packetBytes) 64
attr interpolationmode none
attr title "packets sent to lower layer, sum(packetBytes)"
scalar AntennaDirectionalSelectivityExample.hostA.wlan[1].mac packetReceivedFromUpper:count 1
attr interpolationmode none
attr title "packets received from upper layer, count"
scalar AntennaDirectionalSelectivityExample.hostA.wlan[1].mac packetReceivedFromUpper:sum(packetBytes) 36
attr interpolationmode none
attr title "packets received from upper layer, sum(packetBytes)"
scalar AntennaDirectionalSelectivityExample.hostA.wlan[1].mac packetSentToUpper:count 5
attr interpolationmode none
attr title "packets sent to upper layer, count"
scalar AntennaDirectionalSelectivityExample.hostA.wlan[1].mac packetSentToUpper:sum(packetBytes) 180
attr interpolationmode none
attr title "packets sent to upper layer, sum(packetBytes)"
scalar AntennaDirectionalSelectivityExample.hostA.wlan[1].mac packetDrop:count 0
attr interpolationmode none
attr source packetDropped
attr title "packet drops, count"
scalar AntennaDirectionalSelectivityExample.hostA.wlan[1].mac packetDrop:sum(packetBytes) 0
attr interpolationmode none
attr source packetDropped
attr title "packet drops, sum(packetBytes)"
scalar AntennaDirectionalSelectivityExample.hostA.wlan[1].mac packetDropIncorrectlyReceived:count 0
attr interpolationmode none
attr source packetDropReasonIsIncorrectlyReceived(packetDropped)
attr title "packet drops: incorrectly received, count"
scalar AntennaDirectionalSelectivityExample.hostA.wlan[1].mac packetDropIncorrectlyReceived:sum(packetBytes) 0
attr interpolationmode none
attr source packetDropReasonIsIncorrectlyReceived(packetDropped)
attr title "packet drops: incorrectly received, sum(packetBytes)"
scalar AntennaDirectionalSelectivityExample.hostA.wlan[1].mac packetDropNotAddressedToUs:count 0
attr interpolationmode none
attr source packetDropReasonIsNotAddressedToUs(packetDropped)
attr title "packet drops: not addressed to us, count"
scalar AntennaDirectionalSelectivityExample.hostA.wlan[1].mac packetDropNotAddressedToUs:sum(packetBytes) 0
attr interpolationmode none
attr source packetDropReasonIsNotAddressedToUs(packetDropped)
attr title "packet drops: not addressed to us, sum(packetBytes)"
scalar AntennaDirectionalSelectivityExample.hostA.wlan[1].mac packetDropQueueOverflow:count 0
attr interpolationmode none
attr source packetDropReasonIsQueueOverflow(packetDropped)
attr title "packet drops: queue overflow, count"
scalar AntennaDirectionalSelectivityExample.hostA.wlan[1].mac packetDropQueueOverflow:sum(packetBytes) 0
attr interpolationmode none
attr source packetDropReasonIsQueueOverflow(packetDropped)
attr title "packet drops: queue overflow, sum(packetBytes)"
scalar AntennaDirectionalSelectivityExample.hostA.wlan[1].mac packetDropRetryLimitReached:count 0
attr interpolationmode none
attr source packetDropReasonIsRetryLimitReached(packetDropped)
attr title "packet drops: retry limit reached, count"
scalar AntennaDirectionalSelectivityExample.hostA.wlan[1].mac packetDropRetryLimitReached:sum(packetBytes) 0
attr interpolationmode none
attr source packetDropReasonIsRetryLimitReached(packetDropped)
attr title "packet drops: retry limit reached, sum(packetBytes)"
scalar AntennaDirectionalSelectivityExample.hostA.wlan[1].mac packetDropDuplicateDetected:count 0
attr interpolationmode none
attr source packetDropReasonIsDuplicateDetected(packetDropped)
attr title "packet drops: duplicate detected, count"
scalar AntennaDirectionalSelectivityExample.hostA.wlan[1].mac packetDropDuplicateDetected:sum(packetBytes) 0
attr interpolationmode none
attr source packetDropReasonIsDuplicateDetected(packetDropped)
attr title "packet drops: duplicate detected, sum(packetBytes)"
scalar AntennaDirectionalSelectivityExample.hostA.wlan[1].mac packetDropOther:count 0
attr interpolationmode none
attr source packetDropReasonIsOther(packetDropped)
attr title "packet drops: other, count"
scalar AntennaDirectionalSelectivityExample.hostA.wlan[1].mac packetDropOther:sum(packetBytes) 0
attr interpolationmode none
attr source packetDropReasonIsOther(packetDropped)
attr title "packet drops: other, sum(packetBytes)"
scalar AntennaDirectionalSelectivityExample.hostA.wlan[1].mac linkBroken:count 0
attr interpolationmode none
attr title "link breaks, count"
statistic AntennaDirectionalSelectivityExample.hostA.wlan[1].radio radioChannel:histogram
field count 1
field mean 4
field stddev -nan
field min 4
field max 4
field sum 4
field sqrsum 16
attr interpolationmode sample-hold
attr source radioChannelChanged
attr title "Radio channel, histogram"
bin	-inf	0
bin	3	0
bin	4	1
bin	5	0
scalar AntennaDirectionalSelectivityExample.hostA.wlan[1].radio radioMode:count 5
attr interpolationmode sample-hold
attr source radioModeChanged
attr title "Radio mode, count"
scalar AntennaDirectionalSelectivityExample.hostA.wlan[1].radio receptionState:count 14
attr interpolationmode sample-hold
attr source receptionStateChanged
attr title "Radio reception state, count"
scalar AntennaDirectionalSelectivityExample.hostA.wlan[1].radio transmissionState:count 4
attr interpolationmode sample-hold
attr source transmissionStateChanged
attr title "Radio transmission state, count"
statistic AntennaDirectionalSelectivityExample.hostA.wlan[1].radio minSnir:histogram
field count 5
field mean 2000000000000
field stddev 0
field min 2000000000000
field max 2000000000000
field sum 10000000000000
field sqrsum 2e+25
attr source minimumSnir(packetSentToUpper)
attr title "Min SNIR, histogram"
bin	-inf	0
bin	1999999999999	0
bin	2000000000000	5
bin	2000000000001	0
statistic AntennaDirectionalSelectivityExample.hostA.wlan[1].radio packetErrorRate:histogram
field count 5
field mean 0
field stddev 0
field min 0
field max 0
field sum 0
field sqrsum 0
attr source packetErrorRate(packetSentToUpper)
attr title "Packet error rate, histogram"
bin	-inf	0
bin	-0.5	0
bin	-0.48	0
bin	-0.46	0
bin	-0.44	0
bin	-0.42	0
bin	-0.4	0
bin	-0.38	0
bin	-0.36	0
bin	-0.34	0
bin	-0.32	0
bin	-0.3	0
bin	-0.28	0
bin	-0.26	0
bin	-0.24	0
bin	-0.22	0
bin	-0.2	0
bin	-0.18	0
bin	-0.16	0
bin	-0.14	0
bin	-0.12	0
bin	-0.1	0
bin	-0.08	0
bin	-0.06	0
bin	-0.04	0
bin	-0.02	0
bin	0	5
bin	0.02	0
bin	0.04	0
bin	0.06	0
bin	0.08	0
bin	0.1	0
bin	0.12	0
bin	0.14	0
bin	0.16	0
bin	0.18	0
bin	0.2	0
bin	0.22	0
bin	0.24	0
bin	0.26	0
bin	0.28	0
bin	0.3	0
bin	0.32	0
bin	0.34	0
bin	0.36	0
bin	0.38	0
bin	0.4	0
bin	0.42	0
bin	0.44	0
bin	0.46	0
bin	0.48	0
bin	0.5	0
statistic AntennaDirectionalSelectivityExample.hostA.wlan[1].radio bitErrorRate:histogram
field count 0
field mean -nan
field stddev -nan
field min -nan
field max -nan
field sum 0
field sqrsum 0
attr source bitErrorRate(packetSentToUpper)
attr title "Bit error rate, histogram"
bin	-inf	0
bin	0	0
bin	1	0
statistic AntennaDirectionalSelectivityExample.hostA.wlan[1].radio symbolErrorRate:histogram
field count 0
field mean -nan
field stddev -nan
field min -nan
field max -nan
field sum 0
field sqrsum 0
attr source symbolErrorRate(packetSentToUpper)
attr title "Symbol error rate, histogram"
bin	-inf	0
bin	0	0
bin	1	0
scalar AntennaDirectionalSelectivityExample.hostA.wlan[2].mac.dcf.channelAccess.pendingQueue packetPopped:count 3
attr interpolationmode none
attr title "packet popped, count"
scalar AntennaDirectionalSelectivityExample.hostA.wlan[2].mac.dcf.channelAccess.pendingQueue packetPopped:sum(packetBytes) 192
attr interpolationmode none
attr title "packet popped, sum(packetBytes)"
statistic AntennaDirectionalSelectivityExample.hostA.wlan[2].mac.dcf.channelAccess.pendingQueue queueingTime:histogram
field count 3
field mean 0
field stddev 0
field min 0
field max 0
field sum 0
field sqrsum 0
attr interpolationmode none
attr source queueingTime(packetPopped)
attr title "queueing times, histogram"
attr unit s
bin	-inf	0
bin	-0.5	0
bin	-0.48	0
bin	-0.46	0
bin	-0.44	0
bin	-0.42	0
bin	-0.4	0
bin	-0.38	0
bin	-0.36	0
bin	-0.34	0
bin	-0.32	0
bin	-0.3	0
bin	-0.28	0
bin	-0.26	0
bin	-0.24	0
bin	-0.22	0
bin	-0.2	0
bin	-0.18	0
bin	-0.16	0
bin	-0.14	0
bin	-0.12	0
bin	-0.1	0
bin	-0.08	0
bin	-0.06	0
bin	-0.04	0
bin	-0.02	0
bin	0	3
bin	0.02	0
bin	0.04	0
bin	0.06	0
bin	0.08	0
bin	0.1	0
bin	0.12	0
bin	0.14	0
bin	0.16	0
bin	0.18	0
bin	0.2	0
bin	0.22	0
bin	0.24	0
bin	0.26	0
bin	0.28	0
bin	0.3	0
bin	0.32	0
bin	0.34	0
bin	0.36	0
bin	0.38	0
bin	0.4	0
bin	0.42	0
bin	0.44	0
bin	0.46	0
bin	0.48	0
bin	0.5	0
scalar AntennaDirectionalSelectivityExample.hostA.wlan[2].mac.dcf.channelAccess.pendingQueue queueLength:max 1
attr interpolationmode sample-hold
attr source "count(packetPushed) - count(packetPopped) - count(packetRemoved) - count(packetDropped)"
attr title "queue length, max"
scalar AntennaDirectionalSelectivityExample.hostA.wlan[2].mac.dcf.channelAccess.pendingQueue queueLength:timeavg 0
attr interpolationmode sample-hold
attr source "count(packetPushed) - count(packetPopped) - count(packetRemoved) - count(packetDropped)"
attr title "queue length, timeavg"
scalar AntennaDirectionalSelectivityExample.hostA.wlan[2].mac.dcf.channelAccess.pendingQueue packetPushed:count 3
attr interpolationmode none
attr title "packet pushed, count"
scalar AntennaDirectionalSelectivityExample.hostA.wlan[2].mac.dcf.channelAccess.pendingQueue packetPushed:sum(packetBytes) 192
attr interpolationmode none
attr title "packet pushed, sum(packetBytes)"
scalar AntennaDirectionalSelectivityExample.hostA.wlan[2].mac.dcf.channelAccess.pendingQueue packetDropQueueOverflow:count 0
attr interpolationmode none
attr source packetDropReasonIsQueueOverflow(packetDropped)
attr title "packet drops: queue overflow, count"
scalar AntennaDirectionalSelectivityExample.hostA.wlan[2].mac.dcf.channelAccess.pendingQueue packetDropQueueOverflow:sum(packetBytes) 0
attr interpolationmode none
attr source packetDropReasonIsQueueOverflow(packetDropped)
attr title "packet drops: queue overflow, sum(packetBytes)"
scalar AntennaDirectionalSelectivityExample.hostA.wlan[2].mac.dcf.channelAccess.pendingQueue packetRemoved:count 0
attr interpolationmode none
attr title "packets removed, count"
scalar AntennaDirectionalSelectivityExample.hostA.wlan[2].mac.dcf.channelAccess.pendingQueue packetRemoved:sum(packetBytes) 0
attr interpolationmode none
attr title "packets removed, sum(packetBytes)"
statistic AntennaDirectionalSelectivityExample.hostA.wlan[2].mac.dcf.channelAccess.inProgressFrames queueingTime:histogram
field count 3
field mean 5e-05
field stddev 0
field min 5e-05
field max 5e-05
field sum 0.00015
field sqrsum 7.5e-09
attr interpolationmode none
attr source queueingTime(packetDequeued)
attr title "queueing times, histogram"
bin	-inf	0
bin	0	3
bin	0.01	0
bin	0.02	0
bin	0.03	0
bin	0.04	0
bin	0.05	0
bin	0.06	0
bin	0.07	0
bin	0.08	0
bin	0.09	0
bin	0.1	0
bin	0.11	0
bin	0.12	0
bin	0.13	0
bin	0.14	0
bin	0.15	0
bin	0.16	0
bin	0.17	0
bin	0.18	0
bin	0.19	0
bin	0.2	0
bin	0.21	0
bin	0.22	0
bin	0.23	0
bin	0.24	0
bin	0.25	0
bin	0.26	0
bin	0.27	0
bin	0.28	0
bin	0.29	0
bin	0.3	0
bin	0.31	0
bin	0.32	0
bin	0.33	0
bin	0.34	0
bin	0.35	0
bin	0.36	0
bin	0.37	0
bin	0.38	0
bin	0.39	0
bin	0.4	0
bin	0.41	0
bin	0.42	0
bin	0.43	0
bin	0.44	0
bin	0.45	0
bin	0.46	0
bin	0.47	0
bin	0.48	0
bin	0.49	0
bin	0.5	0
bin	0.51	0
scalar AntennaDirectionalSelectivityExample.hostA.wlan[2].mac.dcf.channelAccess.inProgressFrames queueLength:max 1
attr interpolationmode sample-hold
attr source "count(packetEnqueued) - count(packetDequeued)"
attr title "queue length, max"
scalar AntennaDirectionalSelectivityExample.hostA.wlan[2].mac.dcf.channelAccess.inProgressFrames queueLength:timeavg 3e-05
attr interpolationmode sample-hold
attr source "count(packetEnqueued) - count(packetDequeued)"
attr title "queue length, timeavg"
scalar AntennaDirectionalSelectivityExample.hostA.wlan[2].mac.dcf.channelAccess.contention channelAccessGranted:count 3
attr title "channel access granted, count"
scalar AntennaDirectionalSelectivityExample.hostA.wlan[2].mac.dcf.channelAccess.contention stateChanged:count 40
attr interpolationmode none
attr title "contention state changed, count"
scalar AntennaDirectionalSelectivityExample.hostA.wlan[2].mac.dcf.channelAccess channelOwnershipChanged:count 6
attr interpolationmode sample-hold
attr title "channel ownership, count"
scalar AntennaDirectionalSelectivityExample.hostA.wlan[2].mac.dcf.originatorMacDataService packetAggregated:count 0
attr title "packets aggregated, count"
scalar AntennaDirectionalSelectivityExample.hostA.wlan[2].mac.dcf.originatorMacDataService packetFragmented:count 0
attr title "packets fragmented, count"
scalar AntennaDirectionalSelectivityExample.hostA.wlan[2].mac.dcf.recipientMacDataService packetDeaggregated:count 0
attr title "packets deaggregated, count"
scalar AntennaDirectionalSelectivityExample.hostA.wlan[2].mac.dcf.recipientMacDataService packetDefragmented:count 3
attr title "packets defragmented, count"
scalar AntennaDirectionalSelectivityExample.hostA.wlan[2].mac.dcf.recipientMacDataService packetDropDuplicateDetected:count 0
attr interpolationmode none
attr source packetDropReasonIsDuplicateDetected(packetDropped)
attr title "packet drops: duplicate detected, count"
scalar AntennaDirectionalSelectivityExample.hostA.wlan[2].mac.dcf.recipientMacDataService packetDropDuplicateDetected:sum(packetBytes) 0
attr interpolationmode none
attr source packetDropReasonIsDuplicateDetected(packetDropped)
attr title "packet drops: duplicate detected, sum(packetBytes)"
scalar AntennaDirectionalSelectivityExample.hostA.wlan[2].mac.dcf.recoveryProcedure retryLimitReached:count 0
attr title "retry limit reached, count"
scalar AntennaDirectionalSelectivityExample.hostA.wlan[2].mac.dcf frameSequenceFinished:count 3
attr title "finished frame sequences, count"
statistic AntennaDirectionalSelectivityExample.hostA.wlan[2].mac.dcf frameSequenceDuration:histogram
field count 3
field mean 5e-05
field stddev 0
field min 5e-05
field max 5e-05
field sum 0.00015
field sqrsum 7.5e-09
attr source frameSequenceDuration(frameSequenceFinished)
attr title "frame sequence durations, histogram"
bin	-inf	0
bin	0	3
bin	0.01	0
bin	0.02	0
bin	0.03	0
bin	0.04	0
bin	0.05	0
bin	0.06	0
bin	0.07	0
bin	0.08	0
bin	0.09	0
bin	0.1	0
bin	0.11	0
bin	0.12	0
bin	0.13	0
bin	0.14	0
bin	0.15	0
bin	0.16	0
bin	0.17	0
bin	0.18	0
bin	0.19	0
bin	0.2	0
bin	0.21	0
bin	0.22	0
bin	0.23	0
bin	0.24	0
bin	0.25	0
bin	0.26	0
bin	0.27	0
bin	0.28	0
bin	0.29	0
bin	0.3	0
bin	0.31	0
bin	0.32	0
bin	0.33	0
bin	0.34	0
bin	0.35	0
bin	0.36	0
bin	0.37	0
bin	0.38	0
bin	0.39	0
bin	0.4	0
bin	0.41	0
bin	0.42	0
bin	0.43	0
bin	0.44	0
bin	0.45	0
bin	0.46	0
bin	0.47	0
bin	0.48	0
bin	0.49	0
bin	0.5	0
bin	0.51	0
statistic AntennaDirectionalSelectivityExample.hostA.wlan[2].mac.dcf frameSequenceNumPackets:histogram
field count 3
field mean 1
field stddev 0
field min 1
field max 1
field sum 3
field sqrsum 3
attr source frameSequenceNumPackets(frameSequenceFinished)
attr title "frame sequences: number of packets, histogram"
bin	-inf	0
bin	0	0
bin	1	3
bin	2	0
scalar AntennaDirectionalSelectivityExample.hostA.wlan[2].mac.dcf packetReceivedFromPeer:count 3
attr interpolationmode none
attr title "packets received, count"
scalar AntennaDirectionalSelectivityExample.hostA.wlan[2].mac.dcf packetReceivedFromPeer:sum(packetBytes) 192
attr interpolationmode none
attr title "packets received, sum(packetBytes)"
scalar AntennaDirectionalSelectivityExample.hostA.wlan[2].mac.dcf packetReceivedFromPeerUnicast:count 0
attr interpolationmode none
attr source ieee80211Unicast(packetReceivedFromPeer)
attr title "packets received: unicast, count"
scalar AntennaDirectionalSelectivityExample.hostA.wlan[2].mac.dcf packetReceivedFromPeerUnicast:sum(packetBytes) 0
attr interpolationmode none
attr source ieee80211Unicast(packetReceivedFromPeer)
attr title "packets received: unicast, sum(packetBytes)"
scalar AntennaDirectionalSelectivityExample.hostA.wlan[2].mac.dcf packetReceivedFromPeerMulticast:count 3
attr interpolationmode none
attr source ieee80211Multicast(packetReceivedFromPeer)
attr title "packets received: multicast, count"
scalar AntennaDirectionalSelectivityExample.hostA.wlan[2].mac.dcf packetReceivedFromPeerMulticast:sum(packetBytes) 192
attr interpolationmode none
attr source ieee80211Multicast(packetReceivedFromPeer)
attr title "packets received: multicast, sum(packetBytes)"
scalar AntennaDirectionalSelectivityExample.hostA.wlan[2].mac.dcf packetReceivedFromPeerBroadcast:count 3
attr interpolationmode none
attr source ieee80211Broadcast(packetReceivedFromPeer)
attr title "packets received: broadcast, count"
scalar AntennaDirectionalSelectivityExample.hostA.wlan[2].mac.dcf packetReceivedFromPeerBroadcast:sum(packetBytes) 192
attr interpolationmode none
attr source ieee80211Broadcast(packetReceivedFromPeer)
attr title "packets received: broadcast, sum(packetBytes)"
scalar AntennaDirectionalSelectivityExample.hostA.wlan[2].mac.dcf packetReceivedFromPeerWithRetry:count 0
attr interpolationmode none
attr source ieee80211Retry(packetReceivedFromPeer)
attr title "packets received: with retry, count"
scalar AntennaDirectionalSelectivityExample.hostA.wlan[2].mac.dcf packetReceivedFromPeerWithRetry:sum(packetBytes) 0
attr interpolationmode none
attr source ieee80211Retry(packetReceivedFromPeer)
attr title "packets received: with retry, sum(packetBytes)"
scalar AntennaDirectionalSelectivityExample.hostA.wlan[2].mac.dcf packetReceivedFromPeerWithoutRetry:count 3
attr interpolationmode none
attr source ieee80211NotRetry(packetReceivedFromPeer)
attr title "packets received: without retry, count"
scalar AntennaDirectionalSelectivityExample.hostA.wlan[2].mac.dcf packetReceivedFromPeerWithoutRetry:sum(packetBytes) 192
attr interpolationmode none
attr source ieee80211NotRetry(packetReceivedFromPeer)
attr title "packets received: without retry, sum(packetBytes)"
scalar AntennaDirectionalSelectivityExample.hostA.wlan[2].mac.dcf packetSentToPeer:count 3
attr interpolationmode none
attr title "packets sent, count"
scalar AntennaDirectionalSelectivityExample.hostA.wlan[2].mac.dcf packetSentToPeer:sum(packetBytes) 192
attr interpolationmode none
attr title "packets sent, sum(packetBytes)"
scalar AntennaDirectionalSelectivityExample.hostA.wlan[2].mac.dcf packetSentToPeerUnicast:count 0
attr interpolationmode none
attr source ieee80211Unicast(packetSentToPeer)
attr title "packets sent: unicast, count"
scalar AntennaDirectionalSelectivityExample.hostA.wlan[2].mac.dcf packetSentToPeerUnicast:sum(packetBytes) 0
attr interpolationmode none
attr source ieee80211Unicast(packetSentToPeer)
attr title "packets sent: unicast, sum(packetBytes)"
scalar AntennaDirectionalSelectivityExample.hostA.wlan[2].mac.dcf packetSentToPeerMulticast:count 3
attr interpolationmode none
attr source ieee80211Multicast(packetSentToPeer)
attr title "packets sent: multicast, count"
scalar AntennaDirectionalSelectivityExample.hostA.wlan[2].mac.dcf packetSentToPeerMulticast:sum(packetBytes) 192
attr interpolationmode none
attr source ieee80211Multicast(packetSentToPeer)
attr title "packets sent: multicast, sum(packetBytes)"
scalar AntennaDirectionalSelectivityExample.hostA.wlan[2].mac.dcf packetSentToPeerBroadcast:count 3
attr interpolationmode none
attr source ieee80211Broadcast(packetSentToPeer)
attr title "packets sent: broadcast , count"
scalar AntennaDirectionalSelectivityExample.hostA.wlan[2].mac.dcf packetSentToPeerBroadcast:sum(packetBytes) 192
attr interpolationmode none
attr source ieee80211Broadcast(packetSentToPeer)
attr title "packets sent: broadcast , sum(packetBytes)"
scalar AntennaDirectionalSelectivityExample.hostA.wlan[2].mac.dcf packetSentToPeerWithRetry:count 0
attr interpolationmode none
attr source ieee80211Retry(packetSentToPeer)
attr title "packets sent: with retry, count"
scalar AntennaDirectionalSelectivityExample.hostA.wlan[2].mac.dcf packetSentToPeerWithRetry:sum(packetBytes) 0
attr interpolationmode none
attr source ieee80211Retry(packetSentToPeer)
attr title "packets sent: with retry, sum(packetBytes)"
scalar AntennaDirectionalSelectivityExample.hostA.wlan[2].mac.dcf packetSentToPeerWithoutRetry:count 3
attr interpolationmode none
attr source ieee80211NotRetry(packetSentToPeer)
attr title "packets sent: without retry, count"
scalar AntennaDirectionalSelectivityExample.hostA.wlan[2].mac.dcf packetSentToPeerWithoutRetry:sum(packetBytes) 192
attr interpolationmode none
attr source ieee80211NotRetry(packetSentToPeer)
attr title "packets sent: without retry, sum(packetBytes)"
scalar AntennaDirectionalSelectivityExample.hostA.wlan[2].mac.dcf packetDrop:count 0
attr interpolationmode none
attr source packetDropped
attr title "packet drops, count"
scalar AntennaDirectionalSelectivityExample.hostA.wlan[2].mac.dcf packetDrop:sum(packetBytes) 0
attr interpolationmode none
attr source packetDropped
attr title "packet drops, sum(packetBytes)"
scalar AntennaDirectionalSelectivityExample.hostA.wlan[2].mac.dcf packetDropNotAddressedToUs:count 0
attr interpolationmode none
attr source packetDropReasonIsNotAddressedToUs(packetDropped)
attr title "packet drops: not addressed to us, count"
scalar AntennaDirectionalSelectivityExample.hostA.wlan[2].mac.dcf packetDropNotAddressedToUs:sum(packetBytes) 0
attr interpolationmode none
attr source packetDropReasonIsNotAddressedToUs(packetDropped)
attr title "packet drops: not addressed to us, sum(packetBytes)"
scalar AntennaDirectionalSelectivityExample.hostA.wlan[2].mac.dcf packetDropQueueOverflow:count 0
attr interpolationmode none
attr source packetDropReasonIsQueueOverflow(packetDropped)
attr title "packet drops: queue overflow, count"
scalar AntennaDirectionalSelectivityExample.hostA.wlan[2].mac.dcf packetDropQueueOverflow:sum(packetBytes) 0
attr interpolationmode none
attr source packetDropReasonIsQueueOverflow(packetDropped)
attr title "packet drops: queue overflow, sum(packetBytes)"
scalar AntennaDirectionalSelectivityExample.hostA.wlan[2].mac.dcf packetDropRetryLimitReached:count 0
attr interpolationmode none
attr source packetDropReasonIsRetryLimitReached(packetDropped)
attr title "packet drops: retry limit reached, count"
scalar AntennaDirectionalSelectivityExample.hostA.wlan[2].mac.dcf packetDropRetryLimitReached:sum(packetBytes) 0
attr interpolationmode none
attr source packetDropReasonIsRetryLimitReached(packetDropped)
attr title "packet drops: retry limit reached, sum(packetBytes)"
scalar AntennaDirectionalSelectivityExample.hostA.wlan[2].mac.dcf linkBroken:count 0
attr interpolationmode none
attr title "link breaks, count"
scalar AntennaDirectionalSelectivityExample.hostA.wlan[2].mac packetReceivedFromLower:count 3
attr interpolationmode none
attr title "packets received from lower layer, count"
scalar AntennaDirectionalSelectivityExample.hostA.wlan[2].mac packetReceivedFromLower:sum(packetBytes) 192
attr interpolationmode none
attr title "packets received from lower layer, sum(packetBytes)"
scalar AntennaDirectionalSelectivityExample.hostA.wlan[2].mac packetSentToLower:count 3
attr interpolationmode none
attr title "packets sent to lower layer, count"
scalar AntennaDirectionalSelectivityExample.hostA.wlan[2].mac packetSentToLower:sum(packetBytes) 192
attr interpolationmode none
attr title "packets sent to lower layer, sum(packetBytes)"
scalar AntennaDirectionalSelectivityExample.hostA.wlan[2].mac packetReceivedFromUpper:count 3
attr interpolationmode none
attr title "packets received from upper layer, count"
scalar AntennaDirectionalSelectivityExample.hostA.wlan[2].mac packetReceivedFromUpper:sum(packetBytes) 108
attr interpolationmode none
attr title "packets received from upper layer, sum(packetBytes)"
scalar AntennaDirectionalSelectivityExample.hostA.wlan[2].mac packetSentToUpper:count 3
attr interpolationmode none
attr title "packets sent to upper layer, count"
scalar AntennaDirectionalSelectivityExample.hostA.wlan[2].mac packetSentToUpper:sum(packetBytes) 108
attr interpolationmode none
attr title "packets sent to upper layer, sum(packetBytes)"
scalar AntennaDirectionalSelectivityExample.hostA.wlan[2].mac packetDrop:count 0
attr interpolationmode none
attr source packetDropped
attr title "packet drops, count"
scalar AntennaDirectionalSelectivityExample.hostA.wlan[2].mac packetDrop:sum(packetBytes) 0
attr interpolationmode none
attr source packetDropped
attr title "packet drops, sum(packetBytes)"
scalar AntennaDirectionalSelectivityExample.hostA.wlan[2].mac packetDropIncorrectlyReceived:count 0
attr interpolationmode none
attr source packetDropReasonIsIncorrectlyReceived(packetDropped)
attr title "packet drops: incorrectly received, count"
scalar AntennaDirectionalSelectivityExample.hostA.wlan[2].mac packetDropIncorrectlyReceived:sum(packetBytes) 0
attr interpolationmode none
attr source packetDropReasonIsIncorrectlyReceived(packetDropped)
attr title "packet drops: incorrectly received, sum(packetBytes)"
scalar AntennaDirectionalSelectivityExample.hostA.wlan[2].mac packetDropNotAddressedToUs:count 0
attr interpolationmode none
attr source packetDropReasonIsNotAddressedToUs(packetDropped)
attr title "packet drops: not addressed to us, count"
scalar AntennaDirectionalSelectivityExample.hostA.wlan[2].mac packetDropNotAddressedToUs:sum(packetBytes) 0
attr interpolationmode none
attr source packetDropReasonIsNotAddressedToUs(packetDropped)
attr title "packet drops: not addressed to us, sum(packetBytes)"
scalar AntennaDirectionalSelectivityExample.hostA.wlan[2].mac packetDropQueueOverflow:count 0
attr interpolationmode none
attr source packetDropReasonIsQueueOverflow(packetDropped)
attr title "packet drops: queue overflow, count"
scalar AntennaDirectionalSelectivityExample.hostA.wlan[2].mac packetDropQueueOverflow:sum(packetBytes) 0
attr interpolationmode none
attr source packetDropReasonIsQueueOverflow(packetDropped)
attr title "packet drops: queue overflow, sum(packetBytes)"
scalar AntennaDirectionalSelectivityExample.hostA.wlan[2].mac packetDropRetryLimitReached:count 0
attr interpolationmode none
attr source packetDropReasonIsRetryLimitReached(packetDropped)
attr title "packet drops: retry limit reached, count"
scalar AntennaDirectionalSelectivityExample.hostA.wlan[2].mac packetDropRetryLimitReached:sum(packetBytes) 0
attr interpolationmode none
attr source packetDropReasonIsRetryLimitReached(packetDropped)
attr title "packet drops: retry limit reached, sum(packetBytes)"
scalar AntennaDirectionalSelectivityExample.hostA.wlan[2].mac packetDropDuplicateDetected:count 0
attr interpolationmode none
attr source packetDropReasonIsDuplicateDetected(packetDropped)
attr title "packet drops: duplicate detected, count"
scalar AntennaDirectionalSelectivityExample.hostA.wlan[2].mac packetDropDuplicateDetected:sum(packetBytes) 0
attr interpolationmode none
attr source packetDropReasonIsDuplicateDetected(packetDropped)
attr title "packet drops: duplicate detected, sum(packetBytes)"
scalar AntennaDirectionalSelectivityExample.hostA.wlan[2].mac packetDropOther:count 0
attr interpolationmode none
attr source packetDropReasonIsOther(packetDropped)
attr title "packet drops: other, count"
scalar AntennaDirectionalSelectivityExample.hostA.wlan[2].mac packetDropOther:sum(packetBytes) 0
attr interpolationmode none
attr source packetDropReasonIsOther(packetDropped)
attr title "packet drops: other, sum(packetBytes)"
scalar AntennaDirectionalSelectivityExample.hostA.wlan[2].mac linkBroken:count 0
attr interpolationmode none
attr title "link breaks, count"
statistic AntennaDirectionalSelectivityExample.hostA.wlan[2].radio radioChannel:histogram
field count 1
field mean 4
field stddev -nan
field min 4
field max 4
field sum 4
field sqrsum 16
attr interpolationmode sample-hold
attr source radioChannelChanged
attr title "Radio channel, histogram"
bin	-inf	0
bin	3	0
bin	4	1
bin	5	0
scalar AntennaDirectionalSelectivityExample.hostA.wlan[2].radio radioMode:count 9
attr interpolationmode sample-hold
attr source radioModeChanged
attr title "Radio mode, count"
scalar AntennaDirectionalSelectivityExample.hostA.wlan[2].radio receptionState:count 14
attr interpolationmode sample-hold
attr source receptionStateChanged
attr title "Radio reception state, count"
scalar AntennaDirectionalSelectivityExample.hostA.wlan[2].radio transmissionState:count 12
attr interpolationmode sample-hold
attr source transmissionStateChanged
attr title "Radio transmission state, count"
statistic AntennaDirectionalSelectivityExample.hostA.wlan[2].radio minSnir:histogram
field count 3
field mean 2000000000000
field stddev 0
field min 2000000000000
field max 2000000000000
field sum 6000000000000
field sqrsum 1.2e+25
attr source minimumSnir(packetSentToUpper)
attr title "Min SNIR, histogram"
bin	-inf	0
bin	1999999999999	0
bin	2000000000000	3
bin	2000000000001	0
statistic AntennaDirectionalSelectivityExample.hostA.wlan[2].radio packetErrorRate:histogram
field count 3
field mean 0
field stddev 0
field min 0
field max 0
field sum 0
field sqrsum 0
attr source packetErrorRate(packetSentToUpper)
attr title "Packet error rate, histogram"
bin	-inf	0
bin	-0.5	0
bin	-0.48	0
bin	-0.46	0
bin	-0.44	0
bin	-0.42	0
bin	-0.4	0
bin	-0.38	0
bin	-0.36	0
bin	-0.34	0
bin	-0.32	0
bin	-0.3	0
bin	-0.28	0
bin	-0.26	0
bin	-0.24	0
bin	-0.22	0
bin	-0.2	0
bin	-0.18	0
bin	-0.16	0
bin	-0.14	0
bin	-0.12	0
bin	-0.1	0
bin	-0.08	0
bin	-0.06	0
bin	-0.04	0
bin	-0.02	0
bin	0	3
bin	0.02	0
bin	0.04	0
bin	0.06	0
bin	0.08	0
bin	0.1	0
bin	0.12	0
bin	0.14	0
bin	0.16	0
bin	0.18	0
bin	0.2	0
bin	0.22	0
bin	0.24	0
bin	0.26	0
bin	0.28	0
bin	0.3	0
bin	0.32	0
bin	0.34	0
bin	0.36	0
bin	0.38	0
bin	0.4	0
bin	0.42	0
bin	0.44	0
bin	0.46	0
bin	0.48	0
bin	0.5	0
statistic AntennaDirectionalSelectivityExample.hostA.wlan[2].radio bitErrorRate:histogram
field count 0
field mean -nan
field stddev -nan
field min -nan
field max -nan
field sum 0
field sqrsum 0
attr source bitErrorRate(packetSentToUpper)
attr title "Bit error rate, histogram"
bin	-inf	0
bin	0	0
bin	1	0
statistic AntennaDirectionalSelectivityExample.hostA.wlan[2].radio symbolErrorRate:histogram
field count 0
field mean -nan
field stddev -nan
field min -nan
field max -nan
field sum 0
field sqrsum 0
attr source symbolErrorRate(packetSentToUpper)
attr title "Symbol error rate, histogram"
bin	-inf	0
bin	0	0
bin	1	0
scalar AntennaDirectionalSelectivityExample.hostA.wlan[3].mac.dcf.channelAccess.pendingQueue packetPopped:count 2
attr interpolationmode none
attr title "packet popped, count"
scalar AntennaDirectionalSelectivityExample.hostA.wlan[3].mac.dcf.channelAccess.pendingQueue packetPopped:sum(packetBytes) 128
attr interpolationmode none
attr title "packet popped, sum(packetBytes)"
statistic AntennaDirectionalSelectivityExample.hostA.wlan[3].mac.dcf.channelAccess.pendingQueue queueingTime:histogram
field count 2
field mean 5.5e-05
field stddev 7.778174593052e-05
field min 0
field max 0.00011
field sum 0.00011
field sqrsum 1.21e-08
attr interpolationmode none
attr source queueingTime(packetPopped)
attr title "queueing times, histogram"
attr unit s
bin	-inf	0
bin	0	1
bin	2e-06	0
bin	4e-06	0
bin	6e-06	0
bin	8e-06	0
bin	1e-05	0
bin	1.2e-05	0
bin	1.4e-05	0
bin	1.6e-05	0
bin	1.8e-05	0
bin	2e-05	0
bin	2.2e-05	0
bin	2.4e-05	0
bin	2.6e-05	0
bin	2.8e-05	0
bin	3e-05	0
bin	3.2e-05	0
bin	3.4e-05	0
bin	3.6e-05	0
bin	3.8e-05	0
bin	4e-05	0
bin	4.2e-05	0
bin	4.4e-05	0
bin	4.6e-05	0
bin	4.8e-05	0
bin	5e-05	0
bin	5.2e-05	0
bin	5.4e-05	0
bin	5.6e-05	0
bin	5.8e-05	0
bin	6e-05	0
bin	6.2e-05	0
bin	6.4e-05	0
bin	6.6e-05	0
bin	6.8e-05	0
bin	7e-05	0
bin	7.2e-05	0
bin	7.4e-05	0
bin	7.6e-05	0
bin	7.8e-05	0
bin	8e-05	0
bin	8.2e-05	0
bin	8.4e-05	0
bin	8.6e-05	0
bin	8.8e-05	0
bin	9e-05	0
bin	9.2e-05	0
bin	9.4e-05	0
bin	9.6e-05	0
bin	9.8e-05	0
bin	0.0001	0
bin	0.000102	0
bin	0.000104	0
bin	0.000106	0
bin	0.000108	1
bin	0.00011	0
bin	0.000112	0
bin	0.000114	0
bin	0.000116	0
bin	0.000118	0
bin	0.00012	0
bin	0.000122	0
bin	0.000124	0
bin	0.000126	0
bin	0.000128	0
bin	0.00013	0
bin	0.000132	0
bin	0.000134	0
bin	0.000136	0
bin	0.000138	0
scalar AntennaDirectionalSelectivityExample.hostA.wlan[3].mac.dcf.channelAccess.pendingQueue queueLength:max 1
attr interpolationmode sample-hold
attr source "count(packetPushed) - count(packetPopped) - count(packetRemoved) - count(packetDropped)"
attr title "queue length, max"
scalar AntennaDirectionalSelectivityExample.hostA.wlan[3].mac.dcf.channelAccess.pendingQueue queueLength:timeavg 1.8333333333333e-05
attr interpolationmode sample-hold
attr source "count(packetPushed) - count(packetPopped) - count(packetRemoved) - count(packetDropped)"
attr title "queue length, timeavg"
scalar AntennaDirectionalSelectivityExample.hostA.wlan[3].mac.dcf.channelAccess.pendingQueue packetPushed:count 2
attr interpolationmode none
attr title "packet pushed, count"
scalar AntennaDirectionalSelectivityExample.hostA.wlan[3].mac.dcf.channelAccess.pendingQueue packetPushed:sum(packetBytes) 128
attr interpolationmode none
attr title "packet pushed, sum(packetBytes)"
scalar AntennaDirectionalSelectivityExample.hostA.wlan[3].mac.dcf.channelAccess.pendingQueue packetDropQueueOverflow:count 0
attr interpolationmode none
attr source packetDropReasonIsQueueOverflow(packetDropped)
attr title "packet drops: queue overflow, count"
scalar AntennaDirectionalSelectivityExample.hostA.wlan[3].mac.dcf.channelAccess.pendingQueue packetDropQueueOverflow:sum(packetBytes) 0
attr interpolationmode none
attr source packetDropReasonIsQueueOverflow(packetDropped)
attr title "packet drops: queue overflow, sum(packetBytes)"
scalar AntennaDirectionalSelectivityExample.hostA.wlan[3].mac.dcf.channelAccess.pendingQueue packetRemoved:count 0
attr interpolationmode none
attr title "packets removed, count"
scalar AntennaDirectionalSelectivityExample.hostA.wlan[3].mac.dcf.channelAccess.pendingQueue packetRemoved:sum(packetBytes) 0
attr interpolationmode none
attr title "packets removed, sum(packetBytes)"
statistic AntennaDirectionalSelectivityExample.hostA.wlan[3].mac.dcf.channelAccess.inProgressFrames queueingTime:histogram
field count 2
field mean 5e-05
field stddev 0
field min 5e-05
field max 5e-05
field sum 0.0001
field sqrsum 5e-09
attr interpolationmode none
attr source queueingTime(packetDequeued)
attr title "queueing times, histogram"
bin	-inf	0
bin	0	2
bin	0.01	0
bin	0.02	0
bin	0.03	0
bin	0.04	0
bin	0.05	0
bin	0.06	0
bin	0.07	0
bin	0.08	0
bin	0.09	0
bin	0.1	0
bin	0.11	0
bin	0.12	0
bin	0.13	0
bin	0.14	0
bin	0.15	0
bin	0.16	0
bin	0.17	0
bin	0.18	0
bin	0.19	0
bin	0.2	0
bin	0.21	0
bin	0.22	0
bin	0.23	0
bin	0.24	0
bin	0.25	0
bin	0.26	0
bin	0.27	0
bin	0.28	0
bin	0.29	0
bin	0.3	0
bin	0.31	0
bin	0.32	0
bin	0.33	0
bin	0.34	0
bin	0.35	0
bin	0.36	0
bin	0.37	0
bin	0.38	0
bin	0.39	0
bin	0.4	0
bin	0.41	0
bin	0.42	0
bin	0.43	0
bin	0.44	0
bin	0.45	0
bin	0.46	0
bin	0.47	0
bin	0.48	0
bin	0.49	0
bin	0.5	0
bin	0.51	0
scalar AntennaDirectionalSelectivityExample.hostA.wlan[3].mac.dcf.channelAccess.inProgressFrames queueLength:max 1
attr interpolationmode sample-hold
attr source "count(packetEnqueued) - count(packetDequeued)"
attr title "queue length, max"
scalar AntennaDirectionalSelectivityExample.hostA.wlan[3].mac.dcf.channelAccess.inProgressFrames queueLength:timeavg 1.6666972227824e-05
attr interpolationmode sample-hold
attr source "count(packetEnqueued) - count(packetDequeued)"
attr title "queue length, timeavg"
scalar AntennaDirectionalSelectivityExample.hostA.wlan[3].mac.dcf.channelAccess.contention channelAccessGranted:count 2
attr title "channel access granted, count"
scalar AntennaDirectionalSelectivityExample.hostA.wlan[3].mac.dcf.channelAccess.contention stateChanged:count 36
attr interpolationmode none
attr title "contention state changed, count"
scalar AntennaDirectionalSelectivityExample.hostA.wlan[3].mac.dcf.channelAccess channelOwnershipChanged:count 4
attr interpolationmode sample-hold
attr title "channel ownership, count"
scalar AntennaDirectionalSelectivityExample.hostA.wlan[3].mac.dcf.originatorMacDataService packetAggregated:count 0
attr title "packets aggregated, count"
scalar AntennaDirectionalSelectivityExample.hostA.wlan[3].mac.dcf.originatorMacDataService packetFragmented:count 0
attr title "packets fragmented, count"
scalar AntennaDirectionalSelectivityExample.hostA.wlan[3].mac.dcf.recipientMacDataService packetDeaggregated:count 0
attr title "packets deaggregated, count"
scalar AntennaDirectionalSelectivityExample.hostA.wlan[3].mac.dcf.recipientMacDataService packetDefragmented:count 4
attr title "packets defragmented, count"
scalar AntennaDirectionalSelectivityExample.hostA.wlan[3].mac.dcf.recipientMacDataService packetDropDuplicateDetected:count 0
attr interpolationmode none
attr source packetDropReasonIsDuplicateDetected(packetDropped)
attr title "packet drops: duplicate detected, count"
scalar AntennaDirectionalSelectivityExample.hostA.wlan[3].mac.dcf.recipientMacDataService packetDropDuplicateDetected:sum(packetBytes) 0
attr interpolationmode none
attr source packetDropReasonIsDuplicateDetected(packetDropped)
attr title "packet drops: duplicate detected, sum(packetBytes)"
scalar AntennaDirectionalSelectivityExample.hostA.wlan[3].mac.dcf.recoveryProcedure retryLimitReached:count 0
attr title "retry limit reached, count"
scalar AntennaDirectionalSelectivityExample.hostA.wlan[3].mac.dcf frameSequenceFinished:count 2
attr title "finished frame sequences, count"
statistic AntennaDirectionalSelectivityExample.hostA.wlan[3].mac.dcf frameSequenceDuration:histogram
field count 2
field mean 5e-05
field stddev 0
field min 5e-05
field max 5e-05
field sum 0.0001
field sqrsum 5e-09
attr source frameSequenceDuration(frameSequenceFinished)
attr title "frame sequence durations, histogram"
bin	-inf	0
bin	0	2
bin	0.01	0
bin	0.02	0
bin	0.03	0
bin	0.04	0
bin	0.05	0
bin	0.06	0
bin	0.07	0
bin	0.08	0
bin	0.09	0
bin	0.1	0
bin	0.11	0
bin	0.12	0
bin	0.13	0
bin	0.14	0
bin	0.15	0
bin	0.16	0
bin	0.17	0
bin	0.18	0
bin	0.19	0
bin	0.2	0
bin	0.21	0
bin	0.22	0
bin	0.23	0
bin	0.24	0
bin	0.25	0
bin	0.26	0
bin	0.27	0
bin	0.28	0
bin	0.29	0
bin	0.3	0
bin	0.31	0
bin	0.32	0
bin	0.33	0
bin	0.34	0
bin	0.35	0
bin	0.36	0
bin	0.37	0
bin	0.38	0
bin	0.39	0
bin	0.4	0
bin	0.41	0
bin	0.42	0
bin	0.43	0
bin	0.44	0
bin	0.45	0
bin	0.46	0
bin	0.47	0
bin	0.48	0
bin	0.49	0
bin	0.5	0
bin	0.51	0
statistic AntennaDirectionalSelectivityExample.hostA.wlan[3].mac.dcf frameSequenceNumPackets:histogram
field count 2
field mean 1
field stddev 0
field min 1
field max 1
field sum 2
field sqrsum 2
attr source frameSequenceNumPackets(frameSequenceFinished)
attr title "frame sequences: number of packets, histogram"
bin	-inf	0
bin	0	0
bin	1	2
bin	2	0
scalar AntennaDirectionalSelectivityExample.hostA.wlan[3].mac.dcf packetReceivedFromPeer:count 4
attr interpolationmode none
attr title "packets received, count"
scalar AntennaDirectionalSelectivityExample.hostA.wlan[3].mac.dcf packetReceivedFromPeer:sum(packetBytes) 256
attr interpolationmode none
attr title "packets received, sum(packetBytes)"
scalar AntennaDirectionalSelectivityExample.hostA.wlan[3].mac.dcf packetReceivedFromPeerUnicast:count 0
attr interpolationmode none
attr source ieee80211Unicast(packetReceivedFromPeer)
attr title "packets received: unicast, count"
scalar AntennaDirectionalSelectivityExample.hostA.wlan[3].mac.dcf packetReceivedFromPeerUnicast:sum(packetBytes) 0
attr interpolationmode none
attr source ieee80211Unicast(packetReceivedFromPeer)
attr title "packets received: unicast, sum(packetBytes)"
scalar AntennaDirectionalSelectivityExample.hostA.wlan[3].mac.dcf packetReceivedFromPeerMulticast:count 4
attr interpolationmode none
[...]
field min -nan
field max -nan
field sum 0
field sqrsum 0
attr source frameSequenceNumPackets(frameSequenceFinished)
attr title "frame sequences: number of packets, histogram"
bin	-inf	0
bin	0	0
bin	1	0
scalar AntennaDirectionalSelectivityExample.hostB.wlan[3].mac.dcf packetReceivedFromPeer:count 0
attr interpolationmode none
attr title "packets received, count"
scalar AntennaDirectionalSelectivityExample.hostB.wlan[3].mac.dcf packetReceivedFromPeer:sum(packetBytes) 0
attr interpolationmode none
attr title "packets received, sum(packetBytes)"
scalar AntennaDirectionalSelectivityExample.hostB.wlan[3].mac.dcf packetReceivedFromPeerUnicast:count 0
attr interpolationmode none
attr source ieee80211Unicast(packetReceivedFromPeer)
attr title "packets received: unicast, count"
scalar AntennaDirectionalSelectivityExample.hostB.wlan[3].mac.dcf packetReceivedFromPeerUnicast:sum(packetBytes) 0
attr interpolationmode none
attr source ieee80211Unicast(packetReceivedFromPeer)
attr title "packets received: unicast, sum(packetBytes)"
scalar AntennaDirectionalSelectivityExample.hostB.wlan[3].mac.dcf packetReceivedFromPeerMulticast:count 0
attr interpolationmode none
attr source ieee80211Multicast(packetReceivedFromPeer)
attr title "packets received: multicast, count"
scalar AntennaDirectionalSelectivityExample.hostB.wlan[3].mac.dcf packetReceivedFromPeerMulticast:sum(packetBytes) 0
attr interpolationmode none
attr source ieee80211Multicast(packetReceivedFromPeer)
attr title "packets received: multicast, sum(packetBytes)"
scalar AntennaDirectionalSelectivityExample.hostB.wlan[3].mac.dcf packetReceivedFromPeerBroadcast:count 0
attr interpolationmode none
attr source ieee80211Broadcast(packetReceivedFromPeer)
attr title "packets received: broadcast, count"
scalar AntennaDirectionalSelectivityExample.hostB.wlan[3].mac.dcf packetReceivedFromPeerBroadcast:sum(packetBytes) 0
attr interpolationmode none
attr source ieee80211Broadcast(packetReceivedFromPeer)
attr title "packets received: broadcast, sum(packetBytes)"
scalar AntennaDirectionalSelectivityExample.hostB.wlan[3].mac.dcf packetReceivedFromPeerWithRetry:count 0
attr interpolationmode none
attr source ieee80211Retry(packetReceivedFromPeer)
attr title "packets received: with retry, count"
scalar AntennaDirectionalSelectivityExample.hostB.wlan[3].mac.dcf packetReceivedFromPeerWithRetry:sum(packetBytes) 0
attr interpolationmode none
attr source ieee80211Retry(packetReceivedFromPeer)
attr title "packets received: with retry, sum(packetBytes)"
scalar AntennaDirectionalSelectivityExample.hostB.wlan[3].mac.dcf packetReceivedFromPeerWithoutRetry:count 0
attr interpolationmode none
attr source ieee80211NotRetry(packetReceivedFromPeer)
attr title "packets received: without retry, count"
scalar AntennaDirectionalSelectivityExample.hostB.wlan[3].mac.dcf packetReceivedFromPeerWithoutRetry:sum(packetBytes) 0
attr interpolationmode none
attr source ieee80211NotRetry(packetReceivedFromPeer)
attr title "packets received: without retry, sum(packetBytes)"
scalar AntennaDirectionalSelectivityExample.hostB.wlan[3].mac.dcf packetSentToPeer:count 0
attr interpolationmode none
attr title "packets sent, count"
scalar AntennaDirectionalSelectivityExample.hostB.wlan[3].mac.dcf packetSentToPeer:sum(packetBytes) 0
attr interpolationmode none
attr title "packets sent, sum(packetBytes)"
scalar AntennaDirectionalSelectivityExample.hostB.wlan[3].mac.dcf packetSentToPeerUnicast:count 0
attr interpolationmode none
attr source ieee80211Unicast(packetSentToPeer)
attr title "packets sent: unicast, count"
scalar AntennaDirectionalSelectivityExample.hostB.wlan[3].mac.dcf packetSentToPeerUnicast:sum(packetBytes) 0
attr interpolationmode none
attr source ieee80211Unicast(packetSentToPeer)
attr title "packets sent: unicast, sum(packetBytes)"
scalar AntennaDirectionalSelectivityExample.hostB.wlan[3].mac.dcf packetSentToPeerMulticast:count 0
attr interpolationmode none
attr source ieee80211Multicast(packetSentToPeer)
attr title "packets sent: multicast, count"
scalar AntennaDirectionalSelectivityExample.hostB.wlan[3].mac.dcf packetSentToPeerMulticast:sum(packetBytes) 0
attr interpolationmode none
attr source ieee80211Multicast(packetSentToPeer)
attr title "packets sent: multicast, sum(packetBytes)"
scalar AntennaDirectionalSelectivityExample.hostB.wlan[3].mac.dcf packetSentToPeerBroadcast:count 0
attr interpolationmode none
attr source ieee80211Broadcast(packetSentToPeer)
attr title "packets sent: broadcast , count"
scalar AntennaDirectionalSelectivityExample.hostB.wlan[3].mac.dcf packetSentToPeerBroadcast:sum(packetBytes) 0
attr interpolationmode none
attr source ieee80211Broadcast(packetSentToPeer)
attr title "packets sent: broadcast , sum(packetBytes)"
scalar AntennaDirectionalSelectivityExample.hostB.wlan[3].mac.dcf packetSentToPeerWithRetry:count 0
attr interpolationmode none
attr source ieee80211Retry(packetSentToPeer)
attr title "packets sent: with retry, count"
scalar AntennaDirectionalSelectivityExample.hostB.wlan[3].mac.dcf packetSentToPeerWithRetry:sum(packetBytes) 0
attr interpolationmode none
attr source ieee80211Retry(packetSentToPeer)
attr title "packets sent: with retry, sum(packetBytes)"
scalar AntennaDirectionalSelectivityExample.hostB.wlan[3].mac.dcf packetSentToPeerWithoutRetry:count 0
attr interpolationmode none
attr source ieee80211NotRetry(packetSentToPeer)
attr title "packets sent: without retry, count"
scalar AntennaDirectionalSelectivityExample.hostB.wlan[3].mac.dcf packetSentToPeerWithoutRetry:sum(packetBytes) 0
attr interpolationmode none
attr source ieee80211NotRetry(packetSentToPeer)
attr title "packets sent: without retry, sum(packetBytes)"
scalar AntennaDirectionalSelectivityExample.hostB.wlan[3].mac.dcf packetDrop:count 0
attr interpolationmode none
attr source packetDropped
attr title "packet drops, count"
scalar AntennaDirectionalSelectivityExample.hostB.wlan[3].mac.dcf packetDrop:sum(packetBytes) 0
attr interpolationmode none
attr source packetDropped
attr title "packet drops, sum(packetBytes)"
scalar AntennaDirectionalSelectivityExample.hostB.wlan[3].mac.dcf packetDropNotAddressedToUs:count 0
attr interpolationmode none
attr source packetDropReasonIsNotAddressedToUs(packetDropped)
attr title "packet drops: not addressed to us, count"
scalar AntennaDirectionalSelectivityExample.hostB.wlan[3].mac.dcf packetDropNotAddressedToUs:sum(packetBytes) 0
attr interpolationmode none
attr source packetDropReasonIsNotAddressedToUs(packetDropped)
attr title "packet drops: not addressed to us, sum(packetBytes)"
scalar AntennaDirectionalSelectivityExample.hostB.wlan[3].mac.dcf packetDropQueueOverflow:count 0
attr interpolationmode none
attr source packetDropReasonIsQueueOverflow(packetDropped)
attr title "packet drops: queue overflow, count"
scalar AntennaDirectionalSelectivityExample.hostB.wlan[3].mac.dcf packetDropQueueOverflow:sum(packetBytes) 0
attr interpolationmode none
attr source packetDropReasonIsQueueOverflow(packetDropped)
attr title "packet drops: queue overflow, sum(packetBytes)"
scalar AntennaDirectionalSelectivityExample.hostB.wlan[3].mac.dcf packetDropRetryLimitReached:count 0
attr interpolationmode none
attr source packetDropReasonIsRetryLimitReached(packetDropped)
attr title "packet drops: retry limit reached, count"
scalar AntennaDirectionalSelectivityExample.hostB.wlan[3].mac.dcf packetDropRetryLimitReached:sum(packetBytes) 0
attr interpolationmode none
attr source packetDropReasonIsRetryLimitReached(packetDropped)
attr title "packet drops: retry limit reached, sum(packetBytes)"
scalar AntennaDirectionalSelectivityExample.hostB.wlan[3].mac.dcf linkBroken:count 0
attr interpolationmode none
attr title "link breaks, count"
scalar AntennaDirectionalSelectivityExample.hostB.wlan[3].mac packetReceivedFromLower:count 0
attr interpolationmode none
attr title "packets received from lower layer, count"
scalar AntennaDirectionalSelectivityExample.hostB.wlan[3].mac packetReceivedFromLower:sum(packetBytes) 0
attr interpolationmode none
attr title "packets received from lower layer, sum(packetBytes)"
scalar AntennaDirectionalSelectivityExample.hostB.wlan[3].mac packetSentToLower:count 0
attr interpolationmode none
attr title "packets sent to lower layer, count"
scalar AntennaDirectionalSelectivityExample.hostB.wlan[3].mac packetSentToLower:sum(packetBytes) 0
attr interpolationmode none
attr title "packets sent to lower layer, sum(packetBytes)"
scalar AntennaDirectionalSelectivityExample.hostB.wlan[3].mac packetReceivedFromUpper:count 0
attr interpolationmode none
attr title "packets received from upper layer, count"
scalar AntennaDirectionalSelectivityExample.hostB.wlan[3].mac packetReceivedFromUpper:sum(packetBytes) 0
attr interpolationmode none
attr title "packets received from upper layer, sum(packetBytes)"
scalar AntennaDirectionalSelectivityExample.hostB.wlan[3].mac packetSentToUpper:count 0
attr interpolationmode none
attr title "packets sent to upper layer, count"
scalar AntennaDirectionalSelectivityExample.hostB.wlan[3].mac packetSentToUpper:sum(packetBytes) 0
attr interpolationmode none
attr title "packets sent to upper layer, sum(packetBytes)"
scalar AntennaDirectionalSelectivityExample.hostB.wlan[3].mac packetDrop:count 0
attr interpolationmode none
attr source packetDropped
attr title "packet drops, count"
scalar AntennaDirectionalSelectivityExample.hostB.wlan[3].mac packetDrop:sum(packetBytes) 0
attr interpolationmode none
attr source packetDropped
attr title "packet drops, sum(packetBytes)"
scalar AntennaDirectionalSelectivityExample.hostB.wlan[3].mac packetDropIncorrectlyReceived:count 0
attr interpolationmode none
attr source packetDropReasonIsIncorrectlyReceived(packetDropped)
attr title "packet drops: incorrectly received, count"
scalar AntennaDirectionalSelectivityExample.hostB.wlan[3].mac packetDropIncorrectlyReceived:sum(packetBytes) 0
attr interpolationmode none
attr source packetDropReasonIsIncorrectlyReceived(packetDropped)
attr title "packet drops: incorrectly received, sum(packetBytes)"
scalar AntennaDirectionalSelectivityExample.hostB.wlan[3].mac packetDropNotAddressedToUs:count 0
attr interpolationmode none
attr source packetDropReasonIsNotAddressedToUs(packetDropped)
attr title "packet drops: not addressed to us, count"
scalar AntennaDirectionalSelectivityExample.hostB.wlan[3].mac packetDropNotAddressedToUs:sum(packetBytes) 0
attr interpolationmode none
attr source packetDropReasonIsNotAddressedToUs(packetDropped)
attr title "packet drops: not addressed to us, sum(packetBytes)"
scalar AntennaDirectionalSelectivityExample.hostB.wlan[3].mac packetDropQueueOverflow:count 0
attr interpolationmode none
attr source packetDropReasonIsQueueOverflow(packetDropped)
attr title "packet drops: queue overflow, count"
scalar AntennaDirectionalSelectivityExample.hostB.wlan[3].mac packetDropQueueOverflow:sum(packetBytes) 0
attr interpolationmode none
attr source packetDropReasonIsQueueOverflow(packetDropped)
attr title "packet drops: queue overflow, sum(packetBytes)"
scalar AntennaDirectionalSelectivityExample.hostB.wlan[3].mac packetDropRetryLimitReached:count 0
attr interpolationmode none
attr source packetDropReasonIsRetryLimitReached(packetDropped)
attr title "packet drops: retry limit reached, count"
scalar AntennaDirectionalSelectivityExample.hostB.wlan[3].mac packetDropRetryLimitReached:sum(packetBytes) 0
attr interpolationmode none
attr source packetDropReasonIsRetryLimitReached(packetDropped)
attr title "packet drops: retry limit reached, sum(packetBytes)"
scalar AntennaDirectionalSelectivityExample.hostB.wlan[3].mac packetDropDuplicateDetected:count 0
attr interpolationmode none
attr source packetDropReasonIsDuplicateDetected(packetDropped)
attr title "packet drops: duplicate detected, count"
scalar AntennaDirectionalSelectivityExample.hostB.wlan[3].mac packetDropDuplicateDetected:sum(packetBytes) 0
attr interpolationmode none
attr source packetDropReasonIsDuplicateDetected(packetDropped)
attr title "packet drops: duplicate detected, sum(packetBytes)"
scalar AntennaDirectionalSelectivityExample.hostB.wlan[3].mac packetDropOther:count 0
attr interpolationmode none
attr source packetDropReasonIsOther(packetDropped)
attr title "packet drops: other, count"
scalar AntennaDirectionalSelectivityExample.hostB.wlan[3].mac packetDropOther:sum(packetBytes) 0
attr interpolationmode none
attr source packetDropReasonIsOther(packetDropped)
attr title "packet drops: other, sum(packetBytes)"
scalar AntennaDirectionalSelectivityExample.hostB.wlan[3].mac linkBroken:count 0
attr interpolationmode none
attr title "link breaks, count"
statistic AntennaDirectionalSelectivityExample.hostB.wlan[3].radio radioChannel:histogram
field count 1
field mean 5
field stddev -nan
field min 5
field max 5
field sum 5
field sqrsum 25
attr interpolationmode sample-hold
attr source radioChannelChanged
attr title "Radio channel, histogram"
bin	-inf	0
bin	4	0
bin	5	1
bin	6	0
scalar AntennaDirectionalSelectivityExample.hostB.wlan[3].radio radioMode:count 3
attr interpolationmode sample-hold
attr source radioModeChanged
attr title "Radio mode, count"
scalar AntennaDirectionalSelectivityExample.hostB.wlan[3].radio receptionState:count 1
attr interpolationmode sample-hold
attr source receptionStateChanged
attr title "Radio reception state, count"
scalar AntennaDirectionalSelectivityExample.hostB.wlan[3].radio transmissionState:count 0
attr interpolationmode sample-hold
attr source transmissionStateChanged
attr title "Radio transmission state, count"
statistic AntennaDirectionalSelectivityExample.hostB.wlan[3].radio minSnir:histogram
field count 0
field mean -nan
field stddev -nan
field min -nan
field max -nan
field sum 0
field sqrsum 0
attr source minimumSnir(packetSentToUpper)
attr title "Min SNIR, histogram"
bin	-inf	0
bin	0	0
bin	1	0
statistic AntennaDirectionalSelectivityExample.hostB.wlan[3].radio packetErrorRate:histogram
field count 0
field mean -nan
field stddev -nan
field min -nan
field max -nan
field sum 0
field sqrsum 0
attr source packetErrorRate(packetSentToUpper)
attr title "Packet error rate, histogram"
bin	-inf	0
bin	0	0
bin	1	0
statistic AntennaDirectionalSelectivityExample.hostB.wlan[3].radio bitErrorRate:histogram
field count 0
field mean -nan
field stddev -nan
field min -nan
field max -nan
field sum 0
field sqrsum 0
attr source bitErrorRate(packetSentToUpper)
attr title "Bit error rate, histogram"
bin	-inf	0
bin	0	0
bin	1	0
statistic AntennaDirectionalSelectivityExample.hostB.wlan[3].radio symbolErrorRate:histogram
field count 0
field mean -nan
field stddev -nan
field min -nan
field max -nan
field sum 0
field sqrsum 0
attr source symbolErrorRate(packetSentToUpper)
attr title "Symbol error rate, histogram"
bin	-inf	0
bin	0	0
bin	1	0
scalar AntennaDirectionalSelectivityExample.hostB.ipv4.ip packetDropAddressResolutionFailed:count 0
attr interpolationmode none
attr source packetDropReasonIsAddressResolutionFailed(packetDropped)
attr title "packet drop: address resolution failed, count"
scalar AntennaDirectionalSelectivityExample.hostB.ipv4.ip packetDropAddressResolutionFailed:sum(packetBytes) 0
attr interpolationmode none
attr source packetDropReasonIsAddressResolutionFailed(packetDropped)
attr title "packet drop: address resolution failed, sum(packetBytes)"
scalar AntennaDirectionalSelectivityExample.hostB.ipv4.ip packetDropHopLimitReached:count 0
attr interpolationmode none
attr source packetDropReasonIsHopLimitReached(packetDropped)
attr title "packet drop: hop limit reached, count"
scalar AntennaDirectionalSelectivityExample.hostB.ipv4.ip packetDropHopLimitReached:sum(packetBytes) 0
attr interpolationmode none
attr source packetDropReasonIsHopLimitReached(packetDropped)
attr title "packet drop: hop limit reached, sum(packetBytes)"
scalar AntennaDirectionalSelectivityExample.hostB.ipv4.ip packetDropForwardingDisabled:count 0
attr interpolationmode none
attr source packetDropReasonIsForwardingDisabled(packetDropped)
attr title "packet drop: forwarding disabled, count"
scalar AntennaDirectionalSelectivityExample.hostB.ipv4.ip packetDropForwardingDisabled:sum(packetBytes) 0
attr interpolationmode none
attr source packetDropReasonIsForwardingDisabled(packetDropped)
attr title "packet drop: forwarding disabled, sum(packetBytes)"
scalar AntennaDirectionalSelectivityExample.hostB.ipv4.ip packetDropNoInterfaceFound:count 0
attr interpolationmode none
attr source packetDropReasonIsNoInterfaceFound(packetDropped)
attr title "packet drop: no interface found, count"
scalar AntennaDirectionalSelectivityExample.hostB.ipv4.ip packetDropNoInterfaceFound:sum(packetBytes) 0
attr interpolationmode none
attr source packetDropReasonIsNoInterfaceFound(packetDropped)
attr title "packet drop: no interface found, sum(packetBytes)"
scalar AntennaDirectionalSelectivityExample.hostB.ipv4.ip packetDropNoRouteFound:count 0
attr interpolationmode none
attr source packetDropReasonIsNoRouteFound(packetDropped)
attr title "packet drop: no route found, count"
scalar AntennaDirectionalSelectivityExample.hostB.ipv4.ip packetDropNoRouteFound:sum(packetBytes) 0
attr interpolationmode none
attr source packetDropReasonIsNoRouteFound(packetDropped)
attr title "packet drop: no route found, sum(packetBytes)"
scalar AntennaDirectionalSelectivityExample.hostB.ipv4.ip packetDropUndefined:count 0
attr interpolationmode none
attr source packetDropReasonIsUndefined(packetDropped)
attr title "packet drop: undefined, count"
scalar AntennaDirectionalSelectivityExample.hostB.ipv4.ip packetDropUndefined:sum(packetBytes) 0
attr interpolationmode none
attr source packetDropReasonIsUndefined(packetDropped)
attr title "packet drop: undefined, sum(packetBytes)"
scalar AntennaDirectionalSelectivityExample.hostB.ipv4.arp arpResolutionFailed:count 0
attr title "ARP failed resolutions, count"
scalar AntennaDirectionalSelectivityExample.hostB.ipv4.arp arpResolutionCompleted:count 0
attr title "ARP completed resolutions, count"
scalar AntennaDirectionalSelectivityExample.hostB.ipv4.arp arpResolutionInitiated:count 0
attr title "ARP initiated resolutions, count"
scalar AntennaDirectionalSelectivityExample.hostB.ipv4.arp arpReplySent:count 0
attr source arpReplySent
attr title "ARP replies sent, count"
scalar AntennaDirectionalSelectivityExample.hostB.ipv4.arp arpReplySent:sum(packetBytes) 0
attr source arpReplySent
attr title "ARP replies sent, sum(packetBytes)"
scalar AntennaDirectionalSelectivityExample.hostB.ipv4.arp arpRequestSent:count 0
attr source arpRequestSent
attr title "ARP request sent, count"
scalar AntennaDirectionalSelectivityExample.hostB.ipv4.arp arpRequestSent:sum(packetBytes) 0
attr source arpRequestSent
attr title "ARP request sent, sum(packetBytes)"
scalar AntennaDirectionalSelectivityExample.hostB.udp packetReceived:count 0
attr interpolationmode none
attr source packetReceived
attr title "packets received, count"
scalar AntennaDirectionalSelectivityExample.hostB.udp packetReceived:sum(packetBytes) 0
attr interpolationmode none
attr source packetReceived
attr title "packets received, sum(packetBytes)"
scalar AntennaDirectionalSelectivityExample.hostB.udp packetSent:count 0
attr interpolationmode none
attr source packetSent
attr title "packets sent, count"
scalar AntennaDirectionalSelectivityExample.hostB.udp packetSent:sum(packetBytes) 0
attr interpolationmode none
attr source packetSent
attr title "packets sent, sum(packetBytes)"
scalar AntennaDirectionalSelectivityExample.hostB.udp passedUpPk:count 0
attr interpolationmode none
attr source packetSentToUpper
attr title "packets passed up, count"
scalar AntennaDirectionalSelectivityExample.hostB.udp droppedPkWrongPort:count 0
attr interpolationmode none
attr source packetDropReasonIsNoPortFound(packetDropped)
attr title "packets dropped (wrong port), count"
scalar AntennaDirectionalSelectivityExample.hostB.udp droppedPkBadChecksum:count 0
attr interpolationmode none
attr source packetDropReasonIsIncorrectlyReceived(packetDropped)
attr title "packets dropped (checksum error), count"

